                                  MODFLOW-USG      
      U.S. GEOLOGICAL SURVEY MODULAR FINITE-DIFFERENCE GROUNDWATER FLOW MODEL
                            VERSION 1.2.00 03/21/2014

 LIST FILE: ex3.lst
                         UNIT    7

 OPENING ex3.bas
 FILE TYPE:BAS6   UNIT    1   STATUS:OLD    
 FORMAT:FORMATTED              ACCESS:SEQUENTIAL          

 OPENING ex3.wel
 FILE TYPE:WEL   UNIT   14   STATUS:OLD    
 FORMAT:FORMATTED              ACCESS:SEQUENTIAL          

 OPENING ex3.dis
 FILE TYPE:DIS   UNIT   12   STATUS:OLD    
 FORMAT:FORMATTED              ACCESS:SEQUENTIAL          

 OPENING ex3.bcf
 FILE TYPE:BCF6   UNIT   11   STATUS:OLD    
 FORMAT:FORMATTED              ACCESS:SEQUENTIAL          

 OPENING ex3.cln
 FILE TYPE:CLN   UNIT   13   STATUS:OLD    
 FORMAT:FORMATTED              ACCESS:SEQUENTIAL          

 OPENING ex3.oc
 FILE TYPE:OC   UNIT   22   STATUS:OLD    
 FORMAT:FORMATTED              ACCESS:SEQUENTIAL          

 OPENING ex3.sms
 FILE TYPE:SMS   UNIT   19   STATUS:OLD    
 FORMAT:FORMATTED              ACCESS:SEQUENTIAL          

 OPENING ex3.cbb
 FILE TYPE:DATA(BINARY)   UNIT   50   STATUS:UNKNOWN
 FORMAT:BINARY                 ACCESS:SEQUENTIAL          

 OPENING ex3.hds
 FILE TYPE:DATA(BINARY)   UNIT   30   STATUS:UNKNOWN
 FORMAT:BINARY                 ACCESS:SEQUENTIAL          

 OPENING ex3.ddn
 FILE TYPE:DATA(BINARY)   UNIT   31   STATUS:UNKNOWN
 FORMAT:BINARY                 ACCESS:SEQUENTIAL          

 OPENING ex3.clnhds
 FILE TYPE:DATA(BINARY)   UNIT   36   STATUS:UNKNOWN
 FORMAT:BINARY                 ACCESS:SEQUENTIAL          

 BAS -- BASIC PACKAGE-USG      1.2.00 03/21/2014                        INPUT READ FROM UNIT    1
 
 # MODFLOW2005 Basic Package                                                     
 #                                                                               
 #
 THE FREE FORMAT OPTION HAS BEEN SELECTED

 DIS -- UNSTRUCTURED GRID DISCRETIZATION PACKAGE, VERSION 1 : 5/17/2010 - INPUT READ FROM UNIT   12
 # MODFLOW2000 Discretization File
    2 LAYERS       100 ROWS       100 COLUMNS
    1 STRESS PERIOD(S) IN SIMULATION
 MODEL TIME UNIT IS DAYS
 MODEL LENGTH UNIT IS UNDEFINED
  Confining bed flag for each layer:
   1   0

 CLN -- CONNECTED LINE NETWORK DISCRETIZATION PROCESS, VERSION 1, 3/3/2012 INPUT READ FROM UNIT   13
 FLAG (0) OR MAXIMUM NUMBER OF LINEAR NODES (NCLN) =      1
 FLAG (-VE) OR NUMBER OF LINEAR NODES (+VE) (ICLNNDS) =     -1
 NUMBER OF LINEAR NODE TO MATRIX GRID CONNECTIONS (NCLNGWC) =      2

 CELL-BY-CELL FLOWS WILL BE PRINTED WHEN ICBCFL IS NOT 0 (FLAG ICLNCB IS LESS THAN ZERO)
 CLN HEAD OUTPUT WILL BE SAVED TO THE SAME UNIT NUMBER (IHEDUN) AS USED FOR HEAD OUTPUT FOR POROUS MATRIX (FLAG ICLNHD IS LESS THAN ZERO)
 CLN DDN OUTPUT WILL NOT BE SAVED OR PRINTED (FLAG ICLNDD IS EQUAL TO ZERO)
 CLN IBOUND OUTPUT WILL NOT BE SAVED OR PRINTED (FLAG ICLNIB IS EQUAL TO ZERO)

    NODES PER CLN SEGMENT =         2

                     CONNECTED LINE NETWORK INFORMATION
                    ----------------------------------------
     CLN-NODE NO. CLNTYP ORIENTATION  CLN LENGTH    BOT ELEVATION         FANGLE         IFLIN           ICCWADI
     -----------  ------ ----------- -----------    -------------    -----------        ------    -------
              1      1          0    0.100000E+02   -0.110000E+03    0.157000E+01         -1          0
              2      1          0    0.100000E+02   -0.130000E+03    0.157000E+01         -1          0

                     CLN TO 3-D GRID CONNECTION INFORMATION
                    ----------------------------------------
     F-NODE NO.      LAYER        ROW     COLUMN  EQTN. TYPE           FSKIN           FLENG          FANISO   ICGWADI
     ----------      -----        ---     ------  -----------   ------------  --------------    ------------   -------
              1          1         50         50           0    0.000000E+00    0.100000E+02    0.100000E+01         0
              2          2         50         50           0    0.000000E+00    0.100000E+02    0.100000E+01         0

                     CONDUIT NODE INFORMATION
                    ----------------------------------------
     CONDUIT NODE        RADIUS   CONDUIT SAT K
     ------------        ------   -------------
              1    0.500000E+00    0.323000E+11

 DIS -- UNSTRUCTURED GRID DISCRETIZATION PACKAGE, VERSION 1 : 5/17/2010 - INPUT READ FROM UNIT   12

                     DELR =   470.000    

                     DELC =   470.000    

 TOP ELEVATION OF LAYER 1 = -100.0000    

   MODEL LAYER BOTTOM EL. =  -110.000     FOR LAYER   1

 BOT. EL. OF QUASI-3D BED =  -120.000     FOR LAYER   1

   MODEL LAYER BOTTOM EL. =  -130.000     FOR LAYER   2


 STRESS PERIOD     LENGTH       TIME STEPS     MULTIPLIER FOR DELT    SS FLAG
 ----------------------------------------------------------------------------
        1         2.800000         60                    1.000         TR

 TRANSIENT SIMULATION




           BOUNDARY ARRAY =              1 FOR LAYER   1

           BOUNDARY ARRAY =              1 FOR LAYER   2

 AQUIFER HEAD WILL BE SET TO   999.00     AT ALL NO-FLOW NODES (IBOUND=0).

             INITIAL HEAD =  10.00000     FOR LAYER   1

             INITIAL HEAD =   30.0000     FOR LAYER   2

 OUTPUT CONTROL IS SPECIFIED ONLY AT TIME STEPS FOR WHICH OUTPUT IS DESIRED
 COMPACT CELL-BY-CELL BUDGET FILES WILL BE WRITTEN
 HEAD PRINT FORMAT CODE IS   0    DRAWDOWN PRINT FORMAT CODE IS   0
 HEADS WILL BE SAVED ON UNIT   30    DRAWDOWNS WILL BE SAVED ON UNIT   31

 BCF -- BLOCK-CENTERED FLOW PACKAGE, VERSION 7, 5/2/2005
         INPUT READ FROM UNIT 11
 TRANSIENT SIMULATION
 CELL-BY-CELL FLOWS WILL BE SAVED ON UNIT 50
 HEAD AT CELLS THAT CONVERT TO DRY= -0.10000E+31
 WETTING CAPABILITY IS NOT ACTIVE
 IKVFLAG=0, NODAL INPUT OF CV
      LAYER  LAYER-TYPE CODE     INTERBLOCK T
      --------------------------------------------
         1            4          0 -- HARMONIC    
         2            4          0 -- HARMONIC    

 COLUMN TO ROW ANISOTROPY =  1.000000    

     PRIMARY STORAGE COEF =  1.000000E-04 FOR LAYER   1

    HYD. COND. ALONG ROWS =  100.0000     FOR LAYER   1

 VERT HYD COND /THICKNESS =   0.00000     FOR LAYER   1

   SECONDARY STORAGE COEF =  1.000000E-02 FOR LAYER   1

     PRIMARY STORAGE COEF =  1.000000E-04 FOR LAYER   2

    HYD. COND. ALONG ROWS =   400.000     FOR LAYER   2

   SECONDARY STORAGE COEF =  1.000000E-02 FOR LAYER   2

 CLN -- CONDUIT DOMAIN FLOW PACKAGE, VERSION 1, 5/17/2010 INPUT READ FROM UNIT   13

  CONDUIT BOUNDARY ARRAY  =         1



              CONDUIT INITIAL HEAD 
 READING ON UNIT   13 WITH FORMAT: (FREE)              

 WEL -- WELL PACKAGE, VERSION 7, 5/2/2005 INPUT READ FROM UNIT   14
 No named parameters
 MAXIMUM OF      1 ACTIVE WELLS AT ONE TIME
 CELL-BY-CELL FLOWS WILL BE SAVED ON UNIT   50
 MAXIMUM NUMBER OF ACTIVE WELLS (MXACTW) =      1
 C-B-C FLUX FLAG OR UNIT NUMBER (IWELCB) = 50


     0 Well parameters

 SMS -- SPARSE MATRIX SOLVER PACKAGE, VERSION 7, 5/2/2005
         INPUT READ FROM UNIT 19
 No named parameters
 ALL SOLVER INPUT DATA WILL BE READ 
FROM THE SOLVER INPUT FILE. 
 OUTER ITERATION CONVERGENCE CRITERION (HCLOSE) =    0.100000E-02
 INNER ITERATION CONVERGENCE CRITERION (HICLOSE) =    0.100000E-04
 MAXIMUM NUMBER OF OUTER ITERATIONS (MXITER)     =       220
 MAXIMUM NUMBER OF INNER ITERATIONS (ITER1)      =       600
 SOLVER PRINTOUT INDEX             (IPRSMS)      =         1
 NONLINEAR ITERATION METHOD    (NONLINMETH)      =         2
 LINEAR SOLUTION METHOD           (LINMETH)      =         1
 D-B-D WEIGHT REDUCTION FACTOR      (THETA)      =    0.900000E+00
 D-B-D WEIGHT INCREASE INCREMENT    (KAPPA)      =    0.700000E-01
 D-B-D PREVIOUS HISTORY FACTOR      (GAMMA)      =    0.100000E+00
 MOMENTUM TERM                  (AMOMENTUM)      =    0.000000E+00
 MAXIMUM NUMBER OF BACKTRACKS    (NUMTRACK)      =       200
 BACKTRACKING TOLERANCE FACTOR       (BTOL)      =    0.110000E+01
 BACKTRACKING REDUCTION FACTOR     (BREDUC)      =    0.200000E+00
 BACKTRACKING REIDUAL LIMIT       (RES_LIM)      =    0.100000E+01
 ***Newton Linearization will be used***
 
 ***XMD linear solver will be used***
 XMD -- LINEAR SOLUTION BY XMD PACKAGE VERSION 1.30
     BY MOTOMU IBARAKI, OHIO STATE UNIVERSITY, COLOMBUS, OH
                 INPUT READ FROM UNIT 19
 ACCELERATION METHOD                    (IACL) =         2
 EQUATION ORDERING FLAG               (NORDER) =         1
 LEVEL OF FILL                         (LEVEL) =         3
 MAXIMUM NUMBER OF ORTHOGONALIZATIONS  (NORTH) =        14
 INDEX FOR USING REDUCED SYSTEM      (IREDSYS) =         0
 RESID. REDUCTION CONVERGE CRITERION  (RRCTOL) =  0.000000E+00
 INDEX FOR USING DROP TOLERANCE     (IDROPTOL) =         0
 DROP TOLERANCE VALUE                 ((EPSRN) =  0.100000E-02
 
1
                            STRESS PERIOD NO.    1, LENGTH =   2.800000    
                            -----------------------------------------------

                              NUMBER OF TIME STEPS =    60

                               MULTIPLIER FOR DELT =     1.000

                            INITIAL TIME STEP SIZE =  0.4666667E-01

 WEL -- WELL PACKAGE, VERSION 7, 5/2/2005 INPUT READ FROM UNIT   14

 WELL NO.  CLN-NODE       STRESS FACTOR         
 -----------------------------------------------
      1           2     -0.6284E+05

      1 WELL 
 
 SOLVING FOR HEAD 

 Outer-Iteration  Inner-Iteration  Backtracking  Number of        Incoming       Outgoing  Maximum HeadChange      Maximum Head Change
     Number           Count           Flag       Backtracks       Residual       Residual           Value              Location
        1                             0             0          0.800251E+17     0.800251E+17
        1                8                                                                        -6.91831               2    50    50  lay row col
        1                8                                                                        -19.9880                     2           CLN-node number
        2                             0             0          0.144191E-03     0.144191E-03
        2                1                                                                       -0.592352E-06           2    49    49  lay row col
        2                1                                                                       -0.560825E-06                 2           CLN-node number


     2 CALLS TO SPARSE MATRIX SOLVER PACKAGE  IN FLOW TIME STEP   1 STRESS PERIOD   1

 TOTAL OF       2OUTER ITERATIONS
  MAXIMUM CHANGE FOR EACH ITERATION:
  MAX. CHANGE   LAYER,  ROW,  COL MAX. CHANGE   LAYER,  ROW,  COL MAX. CHANGE   LAYER,  ROW,  COL MAX. CHANGE   LAYER,  ROW,  COL MAX. CHANGE   LAYER,  ROW,  COL
 ------------------------------------------------------------------------------------------------------------------------------------------
   -6.918     (    2,   50,   50) -0.5924E-06 (    2,   49,   49)

  MAXIMUM CHANGE FOR CLN NODE AT EACH ITERATION:
   MAX. CHANGE    CLN-CELL  MAX. CHANGE    CLN-CELL  MAX. CHANGE    CLN-CELL  MAX. CHANGE    CLN-CELL  MAX. CHANGE    CLN-CELL
 ------------------------------------------------------------------------------------------------------------------------------------
   -19.988    ,          2 -0.56083E-06,          2

 NO OUTPUT CONTROL FOR STRESS PERIOD        1   TIME STEP        1

 WRITING "   FLOW CLN FACE" BELOW AT TIME STEP      1, STRESS PERIOD      1
 CLN CELL AND LIST OF CONNECTED CLN CELLS AND FLOWS
         1         2    10.3902    
         2         1   -10.3902    

 WRITING "      GWF TO CLN" BELOW AT TIME STEP      1, STRESS PERIOD      1
  -0.103902E+02   0.628504E+05
 
 SOLVING FOR HEAD 

 Outer-Iteration  Inner-Iteration  Backtracking  Number of        Incoming       Outgoing  Maximum HeadChange      Maximum Head Change
     Number           Count           Flag       Backtracks       Residual       Residual           Value              Location
        1                             0             0          0.391072E+08     0.391072E+08
        1                4                                                                        -1.21606               2    50    50  lay row col
        1                4                                                                        -1.03011                     2           CLN-node number
        2                             0             0          0.418566E-05     0.418566E-05
        2                1                                                                       -0.888598E-07           2    43    55  lay row col
        2                1                                                                       -0.562848E-07                 2           CLN-node number
     2 CALLS TO SPARSE MATRIX SOLVER PACKAGE  IN FLOW TIME STEP   2 STRESS PERIOD   1

 TOTAL OF       2OUTER ITERATIONS
  MAXIMUM CHANGE FOR EACH ITERATION:
  MAX. CHANGE   LAYER,  ROW,  COL MAX. CHANGE   LAYER,  ROW,  COL MAX. CHANGE   LAYER,  ROW,  COL MAX. CHANGE   LAYER,  ROW,  COL MAX. CHANGE   LAYER,  ROW,  COL
 ------------------------------------------------------------------------------------------------------------------------------------------
   -1.216     (    2,   50,   50) -0.8886E-07 (    2,   43,   55)

  MAXIMUM CHANGE FOR CLN NODE AT EACH ITERATION:
   MAX. CHANGE    CLN-CELL  MAX. CHANGE    CLN-CELL  MAX. CHANGE    CLN-CELL  MAX. CHANGE    CLN-CELL  MAX. CHANGE    CLN-CELL
 ------------------------------------------------------------------------------------------------------------------------------------
   -1.0301    ,          2 -0.56285E-07,          2

 NO OUTPUT CONTROL FOR STRESS PERIOD        1   TIME STEP        2

 WRITING "   FLOW CLN FACE" BELOW AT TIME STEP      2, STRESS PERIOD      1
 CLN CELL AND LIST OF CONNECTED CLN CELLS AND FLOWS
         1         2   -883.835    
         2         1    883.835    

 WRITING "      GWF TO CLN" BELOW AT TIME STEP      2, STRESS PERIOD      1
   0.883835E+03   0.619562E+05
 
 SOLVING FOR HEAD 

 Outer-Iteration  Inner-Iteration  Backtracking  Number of        Incoming       Outgoing  Maximum HeadChange      Maximum Head Change
     Number           Count           Flag       Backtracks       Residual       Residual           Value              Location
        1                             0             0          0.119985E+08     0.119985E+08
        1                4                                                                       -0.580269               2    51    50  lay row col
        1                4                                                                       -0.500312                     2           CLN-node number
        2                             0             0          0.919884E-06     0.919884E-06
        2                1                                                                       -0.316689E-07           2    34    62  lay row col
        2                1                                                                       -0.223624E-07                 2           CLN-node number
     2 CALLS TO SPARSE MATRIX SOLVER PACKAGE  IN FLOW TIME STEP   3 STRESS PERIOD   1

 TOTAL OF       2OUTER ITERATIONS
  MAXIMUM CHANGE FOR EACH ITERATION:
  MAX. CHANGE   LAYER,  ROW,  COL MAX. CHANGE   LAYER,  ROW,  COL MAX. CHANGE   LAYER,  ROW,  COL MAX. CHANGE   LAYER,  ROW,  COL MAX. CHANGE   LAYER,  ROW,  COL
 ------------------------------------------------------------------------------------------------------------------------------------------
  -0.5803     (    2,   51,   50) -0.3167E-07 (    2,   34,   62)

  MAXIMUM CHANGE FOR CLN NODE AT EACH ITERATION:
   MAX. CHANGE    CLN-CELL  MAX. CHANGE    CLN-CELL  MAX. CHANGE    CLN-CELL  MAX. CHANGE    CLN-CELL  MAX. CHANGE    CLN-CELL
 ------------------------------------------------------------------------------------------------------------------------------------
  -0.50031    ,          2 -0.22362E-07,          2

 NO OUTPUT CONTROL FOR STRESS PERIOD        1   TIME STEP        3

 WRITING "   FLOW CLN FACE" BELOW AT TIME STEP      3, STRESS PERIOD      1
 CLN CELL AND LIST OF CONNECTED CLN CELLS AND FLOWS
         1         2   -1249.46    
         2         1    1249.46    

 WRITING "      GWF TO CLN" BELOW AT TIME STEP      3, STRESS PERIOD      1
   0.124946E+04   0.615905E+05
 
 SOLVING FOR HEAD 

 Outer-Iteration  Inner-Iteration  Backtracking  Number of        Incoming       Outgoing  Maximum HeadChange      Maximum Head Change
     Number           Count           Flag       Backtracks       Residual       Residual           Value              Location
        1                             0             0          0.709223E+07     0.709223E+07
        1                4                                                                       -0.386680               2    49    50  lay row col
        1                4                                                                       -0.331270                     2           CLN-node number
        2                             0             0          0.209438E-06     0.209438E-06
        2                1                                                                       -0.138301E-07           2    23    68  lay row col
        2                1                                                                       -0.115655E-07                 2           CLN-node number
     2 CALLS TO SPARSE MATRIX SOLVER PACKAGE  IN FLOW TIME STEP   4 STRESS PERIOD   1

 TOTAL OF       2OUTER ITERATIONS
  MAXIMUM CHANGE FOR EACH ITERATION:
  MAX. CHANGE   LAYER,  ROW,  COL MAX. CHANGE   LAYER,  ROW,  COL MAX. CHANGE   LAYER,  ROW,  COL MAX. CHANGE   LAYER,  ROW,  COL MAX. CHANGE   LAYER,  ROW,  COL
 ------------------------------------------------------------------------------------------------------------------------------------------
  -0.3867     (    2,   49,   50) -0.1383E-07 (    2,   23,   68)

  MAXIMUM CHANGE FOR CLN NODE AT EACH ITERATION:
   MAX. CHANGE    CLN-CELL  MAX. CHANGE    CLN-CELL  MAX. CHANGE    CLN-CELL  MAX. CHANGE    CLN-CELL  MAX. CHANGE    CLN-CELL
 ------------------------------------------------------------------------------------------------------------------------------------
  -0.33127    ,          2 -0.11565E-07,          2

 NO OUTPUT CONTROL FOR STRESS PERIOD        1   TIME STEP        4

 WRITING "   FLOW CLN FACE" BELOW AT TIME STEP      4, STRESS PERIOD      1
 CLN CELL AND LIST OF CONNECTED CLN CELLS AND FLOWS
         1         2   -1475.99    
         2         1    1475.99    

 WRITING "      GWF TO CLN" BELOW AT TIME STEP      4, STRESS PERIOD      1
   0.147599E+04   0.613640E+05
 
 SOLVING FOR HEAD 

 Outer-Iteration  Inner-Iteration  Backtracking  Number of        Incoming       Outgoing  Maximum HeadChange      Maximum Head Change
     Number           Count           Flag       Backtracks       Residual       Residual           Value              Location
        1                             0             0          0.502691E+07     0.502691E+07
        1                4                                                                       -0.289141               2    49    50  lay row col
        1                4                                                                       -0.247903                     2           CLN-node number
        2                             0             0          0.338424E-07     0.338424E-07
        2                1                                                                       -0.570667E-08           2    21    69  lay row col
        2                1                                                                       -0.436692E-08                 1           CLN-node number
     2 CALLS TO SPARSE MATRIX SOLVER PACKAGE  IN FLOW TIME STEP   5 STRESS PERIOD   1

 TOTAL OF       2OUTER ITERATIONS
  MAXIMUM CHANGE FOR EACH ITERATION:
  MAX. CHANGE   LAYER,  ROW,  COL MAX. CHANGE   LAYER,  ROW,  COL MAX. CHANGE   LAYER,  ROW,  COL MAX. CHANGE   LAYER,  ROW,  COL MAX. CHANGE   LAYER,  ROW,  COL
 ------------------------------------------------------------------------------------------------------------------------------------------
  -0.2891     (    2,   49,   50) -0.5707E-08 (    2,   21,   69)

  MAXIMUM CHANGE FOR CLN NODE AT EACH ITERATION:
   MAX. CHANGE    CLN-CELL  MAX. CHANGE    CLN-CELL  MAX. CHANGE    CLN-CELL  MAX. CHANGE    CLN-CELL  MAX. CHANGE    CLN-CELL
 ------------------------------------------------------------------------------------------------------------------------------------
  -0.24790    ,          2 -0.43669E-08,          1

 NO OUTPUT CONTROL FOR STRESS PERIOD        1   TIME STEP        5

 WRITING "   FLOW CLN FACE" BELOW AT TIME STEP      5, STRESS PERIOD      1
 CLN CELL AND LIST OF CONNECTED CLN CELLS AND FLOWS
         1         2   -1639.04    
         2         1    1639.04    

 WRITING "      GWF TO CLN" BELOW AT TIME STEP      5, STRESS PERIOD      1
   0.163904E+04   0.612010E+05
 
 SOLVING FOR HEAD 

 Outer-Iteration  Inner-Iteration  Backtracking  Number of        Incoming       Outgoing  Maximum HeadChange      Maximum Head Change
     Number           Count           Flag       Backtracks       Residual       Residual           Value              Location
        1                             0             0          0.388981E+07     0.388981E+07
        1                4                                                                       -0.231116               2    49    49  lay row col
        1                4                                                                       -0.198121                     2           CLN-node number
        2                             0             0          0.890988E-08     0.890988E-08
        2                1                                                                       -0.282808E-08           2    15    63  lay row col
        2                1                                                                       -0.647992E-09                 1           CLN-node number
     2 CALLS TO SPARSE MATRIX SOLVER PACKAGE  IN FLOW TIME STEP   6 STRESS PERIOD   1

 TOTAL OF       2OUTER ITERATIONS
  MAXIMUM CHANGE FOR EACH ITERATION:
  MAX. CHANGE   LAYER,  ROW,  COL MAX. CHANGE   LAYER,  ROW,  COL MAX. CHANGE   LAYER,  ROW,  COL MAX. CHANGE   LAYER,  ROW,  COL MAX. CHANGE   LAYER,  ROW,  COL
 ------------------------------------------------------------------------------------------------------------------------------------------
  -0.2311     (    2,   49,   49) -0.2828E-08 (    2,   15,   63)

  MAXIMUM CHANGE FOR CLN NODE AT EACH ITERATION:
   MAX. CHANGE    CLN-CELL  MAX. CHANGE    CLN-CELL  MAX. CHANGE    CLN-CELL  MAX. CHANGE    CLN-CELL  MAX. CHANGE    CLN-CELL
 ------------------------------------------------------------------------------------------------------------------------------------
  -0.19812    ,          2 -0.64799E-09,          1

 NO OUTPUT CONTROL FOR STRESS PERIOD        1   TIME STEP        6

 WRITING "   FLOW CLN FACE" BELOW AT TIME STEP      6, STRESS PERIOD      1
 CLN CELL AND LIST OF CONNECTED CLN CELLS AND FLOWS
         1         2   -1765.68    
         2         1    1765.68    

 WRITING "      GWF TO CLN" BELOW AT TIME STEP      6, STRESS PERIOD      1
   0.176568E+04   0.610743E+05
 
 SOLVING FOR HEAD 

 Outer-Iteration  Inner-Iteration  Backtracking  Number of        Incoming       Outgoing  Maximum HeadChange      Maximum Head Change
     Number           Count           Flag       Backtracks       Residual       Residual           Value              Location
        1                             0             0          0.317049E+07     0.317049E+07
        1                4                                                                       -0.192394               2    49    49  lay row col
        1                4                                                                       -0.165010                     2           CLN-node number
        2                             0             0          0.653234E-08     0.653234E-08
        2                1                                                                       -0.250228E-08           2    11    62  lay row col
        2                1                                                                       -0.229168E-10                 1           CLN-node number
     2 CALLS TO SPARSE MATRIX SOLVER PACKAGE  IN FLOW TIME STEP   7 STRESS PERIOD   1

 TOTAL OF       2OUTER ITERATIONS
  MAXIMUM CHANGE FOR EACH ITERATION:
  MAX. CHANGE   LAYER,  ROW,  COL MAX. CHANGE   LAYER,  ROW,  COL MAX. CHANGE   LAYER,  ROW,  COL MAX. CHANGE   LAYER,  ROW,  COL MAX. CHANGE   LAYER,  ROW,  COL
 ------------------------------------------------------------------------------------------------------------------------------------------
  -0.1924     (    2,   49,   49) -0.2502E-08 (    2,   11,   62)

  MAXIMUM CHANGE FOR CLN NODE AT EACH ITERATION:
   MAX. CHANGE    CLN-CELL  MAX. CHANGE    CLN-CELL  MAX. CHANGE    CLN-CELL  MAX. CHANGE    CLN-CELL  MAX. CHANGE    CLN-CELL
 ------------------------------------------------------------------------------------------------------------------------------------
  -0.16501    ,          2 -0.22917E-10,          1

 NO OUTPUT CONTROL FOR STRESS PERIOD        1   TIME STEP        7

 WRITING "   FLOW CLN FACE" BELOW AT TIME STEP      7, STRESS PERIOD      1
 CLN CELL AND LIST OF CONNECTED CLN CELLS AND FLOWS
         1         2   -1868.81    
         2         1    1868.81    

 WRITING "      GWF TO CLN" BELOW AT TIME STEP      7, STRESS PERIOD      1
   0.186881E+04   0.609712E+05
 
 SOLVING FOR HEAD 

 Outer-Iteration  Inner-Iteration  Backtracking  Number of        Incoming       Outgoing  Maximum HeadChange      Maximum Head Change
     Number           Count           Flag       Backtracks       Residual       Residual           Value              Location
        1                             0             0          0.267469E+07     0.267469E+07
        1                4                                                                       -0.164716               2    49    49  lay row col
        1                4                                                                       -0.141391                     2           CLN-node number
        2                             0             0          0.721629E-08     0.721629E-08
        2                1                                                                       -0.274617E-08           2    10    64  lay row col
        2                1                                                                       -0.142188E-10                 1           CLN-node number
     2 CALLS TO SPARSE MATRIX SOLVER PACKAGE  IN FLOW TIME STEP   8 STRESS PERIOD   1

 TOTAL OF       2OUTER ITERATIONS
  MAXIMUM CHANGE FOR EACH ITERATION:
  MAX. CHANGE   LAYER,  ROW,  COL MAX. CHANGE   LAYER,  ROW,  COL MAX. CHANGE   LAYER,  ROW,  COL MAX. CHANGE   LAYER,  ROW,  COL MAX. CHANGE   LAYER,  ROW,  COL
 ------------------------------------------------------------------------------------------------------------------------------------------
  -0.1647     (    2,   49,   49) -0.2746E-08 (    2,   10,   64)

  MAXIMUM CHANGE FOR CLN NODE AT EACH ITERATION:
   MAX. CHANGE    CLN-CELL  MAX. CHANGE    CLN-CELL  MAX. CHANGE    CLN-CELL  MAX. CHANGE    CLN-CELL  MAX. CHANGE    CLN-CELL
 ------------------------------------------------------------------------------------------------------------------------------------
  -0.14139    ,          2 -0.14219E-10,          1

 NO OUTPUT CONTROL FOR STRESS PERIOD        1   TIME STEP        8

 WRITING "   FLOW CLN FACE" BELOW AT TIME STEP      8, STRESS PERIOD      1
 CLN CELL AND LIST OF CONNECTED CLN CELLS AND FLOWS
         1         2   -1955.55    
         2         1    1955.55    

 WRITING "      GWF TO CLN" BELOW AT TIME STEP      8, STRESS PERIOD      1
   0.195555E+04   0.608845E+05
 
 SOLVING FOR HEAD 

 Outer-Iteration  Inner-Iteration  Backtracking  Number of        Incoming       Outgoing  Maximum HeadChange      Maximum Head Change
     Number           Count           Flag       Backtracks       Residual       Residual           Value              Location
        1                             0             0          0.231235E+07     0.231235E+07
        1                4                                                                       -0.143958               2    49    49  lay row col
        1                4                                                                       -0.123692                     2           CLN-node number
        2                             0             0          0.665094E-08     0.665094E-08
        2                1                                                                       -0.256177E-08           2    10    66  lay row col
        2                1                                                                        0.279066E-11                 2           CLN-node number
     2 CALLS TO SPARSE MATRIX SOLVER PACKAGE  IN FLOW TIME STEP   9 STRESS PERIOD   1

 TOTAL OF       2OUTER ITERATIONS
  MAXIMUM CHANGE FOR EACH ITERATION:
  MAX. CHANGE   LAYER,  ROW,  COL MAX. CHANGE   LAYER,  ROW,  COL MAX. CHANGE   LAYER,  ROW,  COL MAX. CHANGE   LAYER,  ROW,  COL MAX. CHANGE   LAYER,  ROW,  COL
 ------------------------------------------------------------------------------------------------------------------------------------------
  -0.1440     (    2,   49,   49) -0.2562E-08 (    2,   10,   66)

  MAXIMUM CHANGE FOR CLN NODE AT EACH ITERATION:
   MAX. CHANGE    CLN-CELL  MAX. CHANGE    CLN-CELL  MAX. CHANGE    CLN-CELL  MAX. CHANGE    CLN-CELL  MAX. CHANGE    CLN-CELL
 ------------------------------------------------------------------------------------------------------------------------------------
  -0.12369    ,          2  0.27907E-11,          2

 NO OUTPUT CONTROL FOR STRESS PERIOD        1   TIME STEP        9

 WRITING "   FLOW CLN FACE" BELOW AT TIME STEP      9, STRESS PERIOD      1
 CLN CELL AND LIST OF CONNECTED CLN CELLS AND FLOWS
         1         2   -2030.23    
         2         1    2030.23    

 WRITING "      GWF TO CLN" BELOW AT TIME STEP      9, STRESS PERIOD      1
   0.203023E+04   0.608098E+05
 
 SOLVING FOR HEAD 

 Outer-Iteration  Inner-Iteration  Backtracking  Number of        Incoming       Outgoing  Maximum HeadChange      Maximum Head Change
     Number           Count           Flag       Backtracks       Residual       Residual           Value              Location
        1                             0             0          0.203607E+07     0.203607E+07
        1                4                                                                       -0.127820               2    49    49  lay row col
        1                4                                                                       -0.109934                     2           CLN-node number
        2                             0             0          0.360278E-08     0.360278E-08
        2                1                                                                       -0.220207E-08           1    50    49  lay row col
        2                1                                                                        0.136757E-09                 2           CLN-node number
     2 CALLS TO SPARSE MATRIX SOLVER PACKAGE  IN FLOW TIME STEP  10 STRESS PERIOD   1

 TOTAL OF       2OUTER ITERATIONS
  MAXIMUM CHANGE FOR EACH ITERATION:
  MAX. CHANGE   LAYER,  ROW,  COL MAX. CHANGE   LAYER,  ROW,  COL MAX. CHANGE   LAYER,  ROW,  COL MAX. CHANGE   LAYER,  ROW,  COL MAX. CHANGE   LAYER,  ROW,  COL
 ------------------------------------------------------------------------------------------------------------------------------------------
  -0.1278     (    2,   49,   49) -0.2202E-08 (    1,   50,   49)

  MAXIMUM CHANGE FOR CLN NODE AT EACH ITERATION:
   MAX. CHANGE    CLN-CELL  MAX. CHANGE    CLN-CELL  MAX. CHANGE    CLN-CELL  MAX. CHANGE    CLN-CELL  MAX. CHANGE    CLN-CELL
 ------------------------------------------------------------------------------------------------------------------------------------
  -0.10993    ,          2  0.13676E-09,          2

 NO OUTPUT CONTROL FOR STRESS PERIOD        1   TIME STEP       10

 WRITING "   FLOW CLN FACE" BELOW AT TIME STEP     10, STRESS PERIOD      1
 CLN CELL AND LIST OF CONNECTED CLN CELLS AND FLOWS
         1         2   -2095.69    
         2         1    2095.69    

 WRITING "      GWF TO CLN" BELOW AT TIME STEP     10, STRESS PERIOD      1
   0.209569E+04   0.607443E+05
 
 SOLVING FOR HEAD 

 Outer-Iteration  Inner-Iteration  Backtracking  Number of        Incoming       Outgoing  Maximum HeadChange      Maximum Head Change
     Number           Count           Flag       Backtracks       Residual       Residual           Value              Location
        1                             0             0          0.181848E+07     0.181848E+07
        1                4                                                                       -0.114917               2    49    49  lay row col
        1                4                                                                       -0.989320E-01                 2           CLN-node number
        2                             0             0          0.163303E-08     0.163303E-08
        2                1                                                                        0.136147E-08           2    51    51  lay row col
        2                1                                                                        0.227780E-09                 2           CLN-node number
     2 CALLS TO SPARSE MATRIX SOLVER PACKAGE  IN FLOW TIME STEP  11 STRESS PERIOD   1

 TOTAL OF       2OUTER ITERATIONS
  MAXIMUM CHANGE FOR EACH ITERATION:
  MAX. CHANGE   LAYER,  ROW,  COL MAX. CHANGE   LAYER,  ROW,  COL MAX. CHANGE   LAYER,  ROW,  COL MAX. CHANGE   LAYER,  ROW,  COL MAX. CHANGE   LAYER,  ROW,  COL
 ------------------------------------------------------------------------------------------------------------------------------------------
  -0.1149     (    2,   49,   49)  0.1361E-08 (    2,   51,   51)

  MAXIMUM CHANGE FOR CLN NODE AT EACH ITERATION:
   MAX. CHANGE    CLN-CELL  MAX. CHANGE    CLN-CELL  MAX. CHANGE    CLN-CELL  MAX. CHANGE    CLN-CELL  MAX. CHANGE    CLN-CELL
 ------------------------------------------------------------------------------------------------------------------------------------
  -0.98932E-01,          2  0.22778E-09,          2

 NO OUTPUT CONTROL FOR STRESS PERIOD        1   TIME STEP       11

 WRITING "   FLOW CLN FACE" BELOW AT TIME STEP     11, STRESS PERIOD      1
 CLN CELL AND LIST OF CONNECTED CLN CELLS AND FLOWS
         1         2   -2153.88    
         2         1    2153.88    

 WRITING "      GWF TO CLN" BELOW AT TIME STEP     11, STRESS PERIOD      1
   0.215388E+04   0.606861E+05
 
 SOLVING FOR HEAD 

 Outer-Iteration  Inner-Iteration  Backtracking  Number of        Incoming       Outgoing  Maximum HeadChange      Maximum Head Change
     Number           Count           Flag       Backtracks       Residual       Residual           Value              Location
        1                             0             0          0.164272E+07     0.164272E+07
        1                4                                                                       -0.104367               2    49    49  lay row col
        1                4                                                                       -0.899332E-01                 2           CLN-node number
        2                             0             0          0.837610E-09     0.837610E-09
        2                1                                                                        0.112043E-08           2    51    52  lay row col
        2                1                                                                        0.232443E-09                 2           CLN-node number
     2 CALLS TO SPARSE MATRIX SOLVER PACKAGE  IN FLOW TIME STEP  12 STRESS PERIOD   1

 TOTAL OF       2OUTER ITERATIONS
  MAXIMUM CHANGE FOR EACH ITERATION:
  MAX. CHANGE   LAYER,  ROW,  COL MAX. CHANGE   LAYER,  ROW,  COL MAX. CHANGE   LAYER,  ROW,  COL MAX. CHANGE   LAYER,  ROW,  COL MAX. CHANGE   LAYER,  ROW,  COL
 ------------------------------------------------------------------------------------------------------------------------------------------
  -0.1044     (    2,   49,   49)  0.1120E-08 (    2,   51,   52)

  MAXIMUM CHANGE FOR CLN NODE AT EACH ITERATION:
   MAX. CHANGE    CLN-CELL  MAX. CHANGE    CLN-CELL  MAX. CHANGE    CLN-CELL  MAX. CHANGE    CLN-CELL  MAX. CHANGE    CLN-CELL
 ------------------------------------------------------------------------------------------------------------------------------------
  -0.89933E-01,          2  0.23244E-09,          2

 NO OUTPUT CONTROL FOR STRESS PERIOD        1   TIME STEP       12

 WRITING "   FLOW CLN FACE" BELOW AT TIME STEP     12, STRESS PERIOD      1
 CLN CELL AND LIST OF CONNECTED CLN CELLS AND FLOWS
         1         2   -2206.21    
         2         1    2206.21    

 WRITING "      GWF TO CLN" BELOW AT TIME STEP     12, STRESS PERIOD      1
   0.220621E+04   0.606338E+05
 
 SOLVING FOR HEAD 

 Outer-Iteration  Inner-Iteration  Backtracking  Number of        Incoming       Outgoing  Maximum HeadChange      Maximum Head Change
     Number           Count           Flag       Backtracks       Residual       Residual           Value              Location
        1                             0             0          0.149782E+07     0.149782E+07
        1                4                                                                       -0.956166E-01           2    49    48  lay row col
        1                4                                                                       -0.824358E-01                 2           CLN-node number
        2                             0             0          0.498914E-09     0.498914E-09
        2                1                                                                        0.103437E-08           2    51    52  lay row col
        2                1                                                                        0.253756E-09                 2           CLN-node number
     2 CALLS TO SPARSE MATRIX SOLVER PACKAGE  IN FLOW TIME STEP  13 STRESS PERIOD   1

 TOTAL OF       2OUTER ITERATIONS
  MAXIMUM CHANGE FOR EACH ITERATION:
  MAX. CHANGE   LAYER,  ROW,  COL MAX. CHANGE   LAYER,  ROW,  COL MAX. CHANGE   LAYER,  ROW,  COL MAX. CHANGE   LAYER,  ROW,  COL MAX. CHANGE   LAYER,  ROW,  COL
 ------------------------------------------------------------------------------------------------------------------------------------------
  -0.9562E-01 (    2,   49,   48)  0.1034E-08 (    2,   51,   52)

  MAXIMUM CHANGE FOR CLN NODE AT EACH ITERATION:
   MAX. CHANGE    CLN-CELL  MAX. CHANGE    CLN-CELL  MAX. CHANGE    CLN-CELL  MAX. CHANGE    CLN-CELL  MAX. CHANGE    CLN-CELL
 ------------------------------------------------------------------------------------------------------------------------------------
  -0.82436E-01,          2  0.25376E-09,          2

 NO OUTPUT CONTROL FOR STRESS PERIOD        1   TIME STEP       13

 WRITING "   FLOW CLN FACE" BELOW AT TIME STEP     13, STRESS PERIOD      1
 CLN CELL AND LIST OF CONNECTED CLN CELLS AND FLOWS
         1         2   -2253.70    
         2         1    2253.70    

 WRITING "      GWF TO CLN" BELOW AT TIME STEP     13, STRESS PERIOD      1
   0.225370E+04   0.605863E+05
 
 SOLVING FOR HEAD 

 Outer-Iteration  Inner-Iteration  Backtracking  Number of        Incoming       Outgoing  Maximum HeadChange      Maximum Head Change
     Number           Count           Flag       Backtracks       Residual       Residual           Value              Location
        1                             0             0          0.137635E+07     0.137635E+07
        1                4                                                                       -0.882390E-01           2    49    48  lay row col
        1                4                                                                       -0.760930E-01                 2           CLN-node number
        2                             0             0          0.343481E-09     0.343481E-09
        2                1                                                                        0.980808E-09           2    51    52  lay row col
        2                1                                                                        0.269539E-09                 2           CLN-node number
     2 CALLS TO SPARSE MATRIX SOLVER PACKAGE  IN FLOW TIME STEP  14 STRESS PERIOD   1

 TOTAL OF       2OUTER ITERATIONS
  MAXIMUM CHANGE FOR EACH ITERATION:
  MAX. CHANGE   LAYER,  ROW,  COL MAX. CHANGE   LAYER,  ROW,  COL MAX. CHANGE   LAYER,  ROW,  COL MAX. CHANGE   LAYER,  ROW,  COL MAX. CHANGE   LAYER,  ROW,  COL
 ------------------------------------------------------------------------------------------------------------------------------------------
  -0.8824E-01 (    2,   49,   48)  0.9808E-09 (    2,   51,   52)

  MAXIMUM CHANGE FOR CLN NODE AT EACH ITERATION:
   MAX. CHANGE    CLN-CELL  MAX. CHANGE    CLN-CELL  MAX. CHANGE    CLN-CELL  MAX. CHANGE    CLN-CELL  MAX. CHANGE    CLN-CELL
 ------------------------------------------------------------------------------------------------------------------------------------
  -0.76093E-01,          2  0.26954E-09,          2

 NO OUTPUT CONTROL FOR STRESS PERIOD        1   TIME STEP       14

 WRITING "   FLOW CLN FACE" BELOW AT TIME STEP     14, STRESS PERIOD      1
 CLN CELL AND LIST OF CONNECTED CLN CELLS AND FLOWS
         1         2   -2297.14    
         2         1    2297.14    

 WRITING "      GWF TO CLN" BELOW AT TIME STEP     14, STRESS PERIOD      1
   0.229714E+04   0.605429E+05
 
 SOLVING FOR HEAD 

 Outer-Iteration  Inner-Iteration  Backtracking  Number of        Incoming       Outgoing  Maximum HeadChange      Maximum Head Change
     Number           Count           Flag       Backtracks       Residual       Residual           Value              Location
        1                             0             0          0.127308E+07     0.127308E+07
        1                4                                                                       -0.819119E-01           2    49    48  lay row col
        1                4                                                                       -0.706571E-01                 2           CLN-node number
        2                             0             0          0.261725E-09     0.261725E-09
        2                1                                                                        0.908667E-09           2    51    52  lay row col
        2                1                                                                        0.271144E-09                 2           CLN-node number
     2 CALLS TO SPARSE MATRIX SOLVER PACKAGE  IN FLOW TIME STEP  15 STRESS PERIOD   1

 TOTAL OF       2OUTER ITERATIONS
  MAXIMUM CHANGE FOR EACH ITERATION:
  MAX. CHANGE   LAYER,  ROW,  COL MAX. CHANGE   LAYER,  ROW,  COL MAX. CHANGE   LAYER,  ROW,  COL MAX. CHANGE   LAYER,  ROW,  COL MAX. CHANGE   LAYER,  ROW,  COL
 ------------------------------------------------------------------------------------------------------------------------------------------
  -0.8191E-01 (    2,   49,   48)  0.9087E-09 (    2,   51,   52)

  MAXIMUM CHANGE FOR CLN NODE AT EACH ITERATION:
   MAX. CHANGE    CLN-CELL  MAX. CHANGE    CLN-CELL  MAX. CHANGE    CLN-CELL  MAX. CHANGE    CLN-CELL  MAX. CHANGE    CLN-CELL
 ------------------------------------------------------------------------------------------------------------------------------------
  -0.70657E-01,          2  0.27114E-09,          2

 NO OUTPUT CONTROL FOR STRESS PERIOD        1   TIME STEP       15

 WRITING "   FLOW CLN FACE" BELOW AT TIME STEP     15, STRESS PERIOD      1
 CLN CELL AND LIST OF CONNECTED CLN CELLS AND FLOWS
         1         2   -2337.14    
         2         1    2337.14    

 WRITING "      GWF TO CLN" BELOW AT TIME STEP     15, STRESS PERIOD      1
   0.233714E+04   0.605029E+05
 
 SOLVING FOR HEAD 

 Outer-Iteration  Inner-Iteration  Backtracking  Number of        Incoming       Outgoing  Maximum HeadChange      Maximum Head Change
     Number           Count           Flag       Backtracks       Residual       Residual           Value              Location
        1                             0             0          0.118425E+07     0.118425E+07
        1                4                                                                       -0.764262E-01           2    49    48  lay row col
        1                4                                                                       -0.659465E-01                 2           CLN-node number
        2                             0             0          0.208955E-09     0.208955E-09
        2                1                                                                        0.807848E-09           2    51    52  lay row col
        2                1                                                                        0.246628E-09                 2           CLN-node number
     2 CALLS TO SPARSE MATRIX SOLVER PACKAGE  IN FLOW TIME STEP  16 STRESS PERIOD   1

 TOTAL OF       2OUTER ITERATIONS
  MAXIMUM CHANGE FOR EACH ITERATION:
  MAX. CHANGE   LAYER,  ROW,  COL MAX. CHANGE   LAYER,  ROW,  COL MAX. CHANGE   LAYER,  ROW,  COL MAX. CHANGE   LAYER,  ROW,  COL MAX. CHANGE   LAYER,  ROW,  COL
 ------------------------------------------------------------------------------------------------------------------------------------------
  -0.7643E-01 (    2,   49,   48)  0.8078E-09 (    2,   51,   52)

  MAXIMUM CHANGE FOR CLN NODE AT EACH ITERATION:
   MAX. CHANGE    CLN-CELL  MAX. CHANGE    CLN-CELL  MAX. CHANGE    CLN-CELL  MAX. CHANGE    CLN-CELL  MAX. CHANGE    CLN-CELL
 ------------------------------------------------------------------------------------------------------------------------------------
  -0.65946E-01,          2  0.24663E-09,          2

 NO OUTPUT CONTROL FOR STRESS PERIOD        1   TIME STEP       16

 WRITING "   FLOW CLN FACE" BELOW AT TIME STEP     16, STRESS PERIOD      1
 CLN CELL AND LIST OF CONNECTED CLN CELLS AND FLOWS
         1         2   -2374.18    
         2         1    2374.18    

 WRITING "      GWF TO CLN" BELOW AT TIME STEP     16, STRESS PERIOD      1
   0.237418E+04   0.604658E+05
 
 SOLVING FOR HEAD 

 Outer-Iteration  Inner-Iteration  Backtracking  Number of        Incoming       Outgoing  Maximum HeadChange      Maximum Head Change
     Number           Count           Flag       Backtracks       Residual       Residual           Value              Location
        1                             0             0          0.110708E+07     0.110708E+07
        1                3                                                                       -0.716251E-01           2    49    48  lay row col
        1                3                                                                       -0.618251E-01                 2           CLN-node number
        2                             0             0          0.192200E-06     0.192200E-06
        2                1                                                                        0.566862E-07           1    50    50  lay row col
        2                1                                                                        0.320189E-07                 1           CLN-node number
     2 CALLS TO SPARSE MATRIX SOLVER PACKAGE  IN FLOW TIME STEP  17 STRESS PERIOD   1

 TOTAL OF       2OUTER ITERATIONS
  MAXIMUM CHANGE FOR EACH ITERATION:
  MAX. CHANGE   LAYER,  ROW,  COL MAX. CHANGE   LAYER,  ROW,  COL MAX. CHANGE   LAYER,  ROW,  COL MAX. CHANGE   LAYER,  ROW,  COL MAX. CHANGE   LAYER,  ROW,  COL
 ------------------------------------------------------------------------------------------------------------------------------------------
  -0.7163E-01 (    2,   49,   48)  0.5669E-07 (    1,   50,   50)

  MAXIMUM CHANGE FOR CLN NODE AT EACH ITERATION:
   MAX. CHANGE    CLN-CELL  MAX. CHANGE    CLN-CELL  MAX. CHANGE    CLN-CELL  MAX. CHANGE    CLN-CELL  MAX. CHANGE    CLN-CELL
 ------------------------------------------------------------------------------------------------------------------------------------
  -0.61825E-01,          2  0.32019E-07,          1

 NO OUTPUT CONTROL FOR STRESS PERIOD        1   TIME STEP       17

 WRITING "   FLOW CLN FACE" BELOW AT TIME STEP     17, STRESS PERIOD      1
 CLN CELL AND LIST OF CONNECTED CLN CELLS AND FLOWS
         1         2   -2408.67    
         2         1    2408.67    

 WRITING "      GWF TO CLN" BELOW AT TIME STEP     17, STRESS PERIOD      1
   0.240867E+04   0.604313E+05
 
 SOLVING FOR HEAD 

 Outer-Iteration  Inner-Iteration  Backtracking  Number of        Incoming       Outgoing  Maximum HeadChange      Maximum Head Change
     Number           Count           Flag       Backtracks       Residual       Residual           Value              Location
        1                             0             0          0.103946E+07     0.103946E+07
        1                3                                                                       -0.673882E-01           2    49    48  lay row col
        1                3                                                                       -0.581888E-01                 2           CLN-node number
        2                             0             0          0.167001E-06     0.167001E-06
        2                1                                                                        0.579182E-07           1    50    50  lay row col
        2                1                                                                        0.293126E-07                 1           CLN-node number
     2 CALLS TO SPARSE MATRIX SOLVER PACKAGE  IN FLOW TIME STEP  18 STRESS PERIOD   1

 TOTAL OF       2OUTER ITERATIONS
  MAXIMUM CHANGE FOR EACH ITERATION:
  MAX. CHANGE   LAYER,  ROW,  COL MAX. CHANGE   LAYER,  ROW,  COL MAX. CHANGE   LAYER,  ROW,  COL MAX. CHANGE   LAYER,  ROW,  COL MAX. CHANGE   LAYER,  ROW,  COL
 ------------------------------------------------------------------------------------------------------------------------------------------
  -0.6739E-01 (    2,   49,   48)  0.5792E-07 (    1,   50,   50)

  MAXIMUM CHANGE FOR CLN NODE AT EACH ITERATION:
   MAX. CHANGE    CLN-CELL  MAX. CHANGE    CLN-CELL  MAX. CHANGE    CLN-CELL  MAX. CHANGE    CLN-CELL  MAX. CHANGE    CLN-CELL
 ------------------------------------------------------------------------------------------------------------------------------------
  -0.58189E-01,          2  0.29313E-07,          1

 NO OUTPUT CONTROL FOR STRESS PERIOD        1   TIME STEP       18

 WRITING "   FLOW CLN FACE" BELOW AT TIME STEP     18, STRESS PERIOD      1
 CLN CELL AND LIST OF CONNECTED CLN CELLS AND FLOWS
         1         2   -2440.90    
         2         1    2440.90    

 WRITING "      GWF TO CLN" BELOW AT TIME STEP     18, STRESS PERIOD      1
   0.244090E+04   0.603991E+05
 
 SOLVING FOR HEAD 

 Outer-Iteration  Inner-Iteration  Backtracking  Number of        Incoming       Outgoing  Maximum HeadChange      Maximum Head Change
     Number           Count           Flag       Backtracks       Residual       Residual           Value              Location
        1                             0             0           979784.          979784.    
        1                3                                                                       -0.636220E-01           2    49    48  lay row col
        1                3                                                                       -0.549569E-01                 2           CLN-node number
        2                             0             0          0.149322E-06     0.149322E-06
        2                1                                                                        0.567421E-07           1    50    50  lay row col
        2                1                                                                        0.265696E-07                 1           CLN-node number
     2 CALLS TO SPARSE MATRIX SOLVER PACKAGE  IN FLOW TIME STEP  19 STRESS PERIOD   1

 TOTAL OF       2OUTER ITERATIONS
  MAXIMUM CHANGE FOR EACH ITERATION:
  MAX. CHANGE   LAYER,  ROW,  COL MAX. CHANGE   LAYER,  ROW,  COL MAX. CHANGE   LAYER,  ROW,  COL MAX. CHANGE   LAYER,  ROW,  COL MAX. CHANGE   LAYER,  ROW,  COL
 ------------------------------------------------------------------------------------------------------------------------------------------
  -0.6362E-01 (    2,   49,   48)  0.5674E-07 (    1,   50,   50)

  MAXIMUM CHANGE FOR CLN NODE AT EACH ITERATION:
   MAX. CHANGE    CLN-CELL  MAX. CHANGE    CLN-CELL  MAX. CHANGE    CLN-CELL  MAX. CHANGE    CLN-CELL  MAX. CHANGE    CLN-CELL
 ------------------------------------------------------------------------------------------------------------------------------------
  -0.54957E-01,          2  0.26570E-07,          1

 NO OUTPUT CONTROL FOR STRESS PERIOD        1   TIME STEP       19

 WRITING "   FLOW CLN FACE" BELOW AT TIME STEP     19, STRESS PERIOD      1
 CLN CELL AND LIST OF CONNECTED CLN CELLS AND FLOWS
         1         2   -2471.16    
         2         1    2471.16    

 WRITING "      GWF TO CLN" BELOW AT TIME STEP     19, STRESS PERIOD      1
   0.247116E+04   0.603688E+05
 
 SOLVING FOR HEAD 

 Outer-Iteration  Inner-Iteration  Backtracking  Number of        Incoming       Outgoing  Maximum HeadChange      Maximum Head Change
     Number           Count           Flag       Backtracks       Residual       Residual           Value              Location
        1                             0             0           926774.          926774.    
        1                3                                                                       -0.602522E-01           2    49    48  lay row col
        1                3                                                                       -0.520653E-01                 2           CLN-node number
        2                             0             0          0.138695E-06     0.138695E-06
        2                1                                                                        0.540465E-07           1    50    50  lay row col
        2                1                                                                        0.239084E-07                 1           CLN-node number
     2 CALLS TO SPARSE MATRIX SOLVER PACKAGE  IN FLOW TIME STEP  20 STRESS PERIOD   1

 TOTAL OF       2OUTER ITERATIONS
  MAXIMUM CHANGE FOR EACH ITERATION:
  MAX. CHANGE   LAYER,  ROW,  COL MAX. CHANGE   LAYER,  ROW,  COL MAX. CHANGE   LAYER,  ROW,  COL MAX. CHANGE   LAYER,  ROW,  COL MAX. CHANGE   LAYER,  ROW,  COL
 ------------------------------------------------------------------------------------------------------------------------------------------
  -0.6025E-01 (    2,   49,   48)  0.5405E-07 (    1,   50,   50)

  MAXIMUM CHANGE FOR CLN NODE AT EACH ITERATION:
   MAX. CHANGE    CLN-CELL  MAX. CHANGE    CLN-CELL  MAX. CHANGE    CLN-CELL  MAX. CHANGE    CLN-CELL  MAX. CHANGE    CLN-CELL
 ------------------------------------------------------------------------------------------------------------------------------------
  -0.52065E-01,          2  0.23908E-07,          1

 NO OUTPUT CONTROL FOR STRESS PERIOD        1   TIME STEP       20

 WRITING "   FLOW CLN FACE" BELOW AT TIME STEP     20, STRESS PERIOD      1
 CLN CELL AND LIST OF CONNECTED CLN CELLS AND FLOWS
         1         2   -2499.65    
         2         1    2499.65    

 WRITING "      GWF TO CLN" BELOW AT TIME STEP     20, STRESS PERIOD      1
   0.249965E+04   0.603403E+05
 
 SOLVING FOR HEAD 

 Outer-Iteration  Inner-Iteration  Backtracking  Number of        Incoming       Outgoing  Maximum HeadChange      Maximum Head Change
     Number           Count           Flag       Backtracks       Residual       Residual           Value              Location
        1                             0             0           879432.          879432.    
        1                3                                                                       -0.572198E-01           2    48    49  lay row col
        1                3                                                                       -0.494631E-01                 2           CLN-node number
        2                             0             0          0.134561E-06     0.134561E-06
        2                1                                                                        0.505155E-07           1    50    50  lay row col
        2                1                                                                        0.213896E-07                 1           CLN-node number
     2 CALLS TO SPARSE MATRIX SOLVER PACKAGE  IN FLOW TIME STEP  21 STRESS PERIOD   1

 TOTAL OF       2OUTER ITERATIONS
  MAXIMUM CHANGE FOR EACH ITERATION:
  MAX. CHANGE   LAYER,  ROW,  COL MAX. CHANGE   LAYER,  ROW,  COL MAX. CHANGE   LAYER,  ROW,  COL MAX. CHANGE   LAYER,  ROW,  COL MAX. CHANGE   LAYER,  ROW,  COL
 ------------------------------------------------------------------------------------------------------------------------------------------
  -0.5722E-01 (    2,   48,   49)  0.5052E-07 (    1,   50,   50)

  MAXIMUM CHANGE FOR CLN NODE AT EACH ITERATION:
   MAX. CHANGE    CLN-CELL  MAX. CHANGE    CLN-CELL  MAX. CHANGE    CLN-CELL  MAX. CHANGE    CLN-CELL  MAX. CHANGE    CLN-CELL
 ------------------------------------------------------------------------------------------------------------------------------------
  -0.49463E-01,          2  0.21390E-07,          1

 NO OUTPUT CONTROL FOR STRESS PERIOD        1   TIME STEP       21

 WRITING "   FLOW CLN FACE" BELOW AT TIME STEP     21, STRESS PERIOD      1
 CLN CELL AND LIST OF CONNECTED CLN CELLS AND FLOWS
         1         2   -2526.57    
         2         1    2526.57    

 WRITING "      GWF TO CLN" BELOW AT TIME STEP     21, STRESS PERIOD      1
   0.252657E+04   0.603134E+05
 
 SOLVING FOR HEAD 

 Outer-Iteration  Inner-Iteration  Backtracking  Number of        Incoming       Outgoing  Maximum HeadChange      Maximum Head Change
     Number           Count           Flag       Backtracks       Residual       Residual           Value              Location
        1                             0             0           836953.          836953.    
        1                3                                                                       -0.544765E-01           2    48    49  lay row col
        1                3                                                                       -0.471090E-01                 2           CLN-node number
        2                             0             0          0.136145E-06     0.136145E-06
        2                1                                                                        0.465870E-07           1    50    50  lay row col
        2                1                                                                        0.190817E-07                 1           CLN-node number
     2 CALLS TO SPARSE MATRIX SOLVER PACKAGE  IN FLOW TIME STEP  22 STRESS PERIOD   1

 TOTAL OF       2OUTER ITERATIONS
  MAXIMUM CHANGE FOR EACH ITERATION:
  MAX. CHANGE   LAYER,  ROW,  COL MAX. CHANGE   LAYER,  ROW,  COL MAX. CHANGE   LAYER,  ROW,  COL MAX. CHANGE   LAYER,  ROW,  COL MAX. CHANGE   LAYER,  ROW,  COL
 ------------------------------------------------------------------------------------------------------------------------------------------
  -0.5448E-01 (    2,   48,   49)  0.4659E-07 (    1,   50,   50)

  MAXIMUM CHANGE FOR CLN NODE AT EACH ITERATION:
   MAX. CHANGE    CLN-CELL  MAX. CHANGE    CLN-CELL  MAX. CHANGE    CLN-CELL  MAX. CHANGE    CLN-CELL  MAX. CHANGE    CLN-CELL
 ------------------------------------------------------------------------------------------------------------------------------------
  -0.47109E-01,          2  0.19082E-07,          1

 NO OUTPUT CONTROL FOR STRESS PERIOD        1   TIME STEP       22

 WRITING "   FLOW CLN FACE" BELOW AT TIME STEP     22, STRESS PERIOD      1
 CLN CELL AND LIST OF CONNECTED CLN CELLS AND FLOWS
         1         2   -2552.07    
         2         1    2552.07    

 WRITING "      GWF TO CLN" BELOW AT TIME STEP     22, STRESS PERIOD      1
   0.255207E+04   0.602879E+05
 
 SOLVING FOR HEAD 

 Outer-Iteration  Inner-Iteration  Backtracking  Number of        Incoming       Outgoing  Maximum HeadChange      Maximum Head Change
     Number           Count           Flag       Backtracks       Residual       Residual           Value              Location
        1                             0             0           798679.          798679.    
        1                3                                                                       -0.519914E-01           2    48    48  lay row col
        1                3                                                                       -0.449691E-01                 2           CLN-node number
        2                             0             0          0.142584E-06     0.142584E-06
        2                1                                                                        0.425203E-07           1    50    50  lay row col
        2                1                                                                        0.170306E-07                 1           CLN-node number
     2 CALLS TO SPARSE MATRIX SOLVER PACKAGE  IN FLOW TIME STEP  23 STRESS PERIOD   1

 TOTAL OF       2OUTER ITERATIONS
  MAXIMUM CHANGE FOR EACH ITERATION:
  MAX. CHANGE   LAYER,  ROW,  COL MAX. CHANGE   LAYER,  ROW,  COL MAX. CHANGE   LAYER,  ROW,  COL MAX. CHANGE   LAYER,  ROW,  COL MAX. CHANGE   LAYER,  ROW,  COL
 ------------------------------------------------------------------------------------------------------------------------------------------
  -0.5199E-01 (    2,   48,   48)  0.4252E-07 (    1,   50,   50)

  MAXIMUM CHANGE FOR CLN NODE AT EACH ITERATION:
   MAX. CHANGE    CLN-CELL  MAX. CHANGE    CLN-CELL  MAX. CHANGE    CLN-CELL  MAX. CHANGE    CLN-CELL  MAX. CHANGE    CLN-CELL
 ------------------------------------------------------------------------------------------------------------------------------------
  -0.44969E-01,          2  0.17031E-07,          1

 NO OUTPUT CONTROL FOR STRESS PERIOD        1   TIME STEP       23

 WRITING "   FLOW CLN FACE" BELOW AT TIME STEP     23, STRESS PERIOD      1
 CLN CELL AND LIST OF CONNECTED CLN CELLS AND FLOWS
         1         2   -2576.29    
         2         1    2576.29    

 WRITING "      GWF TO CLN" BELOW AT TIME STEP     23, STRESS PERIOD      1
   0.257629E+04   0.602637E+05
 
 SOLVING FOR HEAD 

 Outer-Iteration  Inner-Iteration  Backtracking  Number of        Incoming       Outgoing  Maximum HeadChange      Maximum Head Change
     Number           Count           Flag       Backtracks       Residual       Residual           Value              Location
        1                             0             0           764069.          764069.    
        1                3                                                                       -0.497238E-01           2    48    48  lay row col
        1                3                                                                       -0.430156E-01                 2           CLN-node number
        2                             0             0          0.153142E-06     0.153142E-06
        2                1                                                                        0.384833E-07           1    50    50  lay row col
        2                1                                                                        0.152955E-07                 1           CLN-node number
     2 CALLS TO SPARSE MATRIX SOLVER PACKAGE  IN FLOW TIME STEP  24 STRESS PERIOD   1

 TOTAL OF       2OUTER ITERATIONS
  MAXIMUM CHANGE FOR EACH ITERATION:
  MAX. CHANGE   LAYER,  ROW,  COL MAX. CHANGE   LAYER,  ROW,  COL MAX. CHANGE   LAYER,  ROW,  COL MAX. CHANGE   LAYER,  ROW,  COL MAX. CHANGE   LAYER,  ROW,  COL
 ------------------------------------------------------------------------------------------------------------------------------------------
  -0.4972E-01 (    2,   48,   48)  0.3848E-07 (    1,   50,   50)

  MAXIMUM CHANGE FOR CLN NODE AT EACH ITERATION:
   MAX. CHANGE    CLN-CELL  MAX. CHANGE    CLN-CELL  MAX. CHANGE    CLN-CELL  MAX. CHANGE    CLN-CELL  MAX. CHANGE    CLN-CELL
 ------------------------------------------------------------------------------------------------------------------------------------
  -0.43016E-01,          2  0.15296E-07,          1

 NO OUTPUT CONTROL FOR STRESS PERIOD        1   TIME STEP       24

 WRITING "   FLOW CLN FACE" BELOW AT TIME STEP     24, STRESS PERIOD      1
 CLN CELL AND LIST OF CONNECTED CLN CELLS AND FLOWS
         1         2   -2599.35    
         2         1    2599.35    

 WRITING "      GWF TO CLN" BELOW AT TIME STEP     24, STRESS PERIOD      1
   0.259935E+04   0.602406E+05
 
 SOLVING FOR HEAD 

 Outer-Iteration  Inner-Iteration  Backtracking  Number of        Incoming       Outgoing  Maximum HeadChange      Maximum Head Change
     Number           Count           Flag       Backtracks       Residual       Residual           Value              Location
        1                             0             0           732676.          732676.    
        1                3                                                                       -0.476452E-01           2    48    48  lay row col
        1                3                                                                       -0.412252E-01                 2           CLN-node number
        2                             0             0          0.167505E-06     0.167505E-06
        2                1                                                                        0.345989E-07           1    50    50  lay row col
        2                1                                                                        0.139566E-07                 1           CLN-node number
     2 CALLS TO SPARSE MATRIX SOLVER PACKAGE  IN FLOW TIME STEP  25 STRESS PERIOD   1

 TOTAL OF       2OUTER ITERATIONS
  MAXIMUM CHANGE FOR EACH ITERATION:
  MAX. CHANGE   LAYER,  ROW,  COL MAX. CHANGE   LAYER,  ROW,  COL MAX. CHANGE   LAYER,  ROW,  COL MAX. CHANGE   LAYER,  ROW,  COL MAX. CHANGE   LAYER,  ROW,  COL
 ------------------------------------------------------------------------------------------------------------------------------------------
  -0.4765E-01 (    2,   48,   48)  0.3460E-07 (    1,   50,   50)

  MAXIMUM CHANGE FOR CLN NODE AT EACH ITERATION:
   MAX. CHANGE    CLN-CELL  MAX. CHANGE    CLN-CELL  MAX. CHANGE    CLN-CELL  MAX. CHANGE    CLN-CELL  MAX. CHANGE    CLN-CELL
 ------------------------------------------------------------------------------------------------------------------------------------
  -0.41225E-01,          2  0.13957E-07,          1

 NO OUTPUT CONTROL FOR STRESS PERIOD        1   TIME STEP       25

 WRITING "   FLOW CLN FACE" BELOW AT TIME STEP     25, STRESS PERIOD      1
 CLN CELL AND LIST OF CONNECTED CLN CELLS AND FLOWS
         1         2   -2621.35    
         2         1    2621.35    

 WRITING "      GWF TO CLN" BELOW AT TIME STEP     25, STRESS PERIOD      1
   0.262135E+04   0.602186E+05
 
 SOLVING FOR HEAD 

 Outer-Iteration  Inner-Iteration  Backtracking  Number of        Incoming       Outgoing  Maximum HeadChange      Maximum Head Change
     Number           Count           Flag       Backtracks       Residual       Residual           Value              Location
        1                             0             0           704120.          704120.    
        1                3                                                                       -0.457329E-01           2    48    48  lay row col
        1                3                                                                       -0.395784E-01                 2           CLN-node number
        2                             0             0          0.186183E-06     0.186183E-06
        2                1                                                                        0.309641E-07           1    50    50  lay row col
        2                1                                                                        0.130966E-07                 1           CLN-node number
     2 CALLS TO SPARSE MATRIX SOLVER PACKAGE  IN FLOW TIME STEP  26 STRESS PERIOD   1

 TOTAL OF       2OUTER ITERATIONS
  MAXIMUM CHANGE FOR EACH ITERATION:
  MAX. CHANGE   LAYER,  ROW,  COL MAX. CHANGE   LAYER,  ROW,  COL MAX. CHANGE   LAYER,  ROW,  COL MAX. CHANGE   LAYER,  ROW,  COL MAX. CHANGE   LAYER,  ROW,  COL
 ------------------------------------------------------------------------------------------------------------------------------------------
  -0.4573E-01 (    2,   48,   48)  0.3096E-07 (    1,   50,   50)

  MAXIMUM CHANGE FOR CLN NODE AT EACH ITERATION:
   MAX. CHANGE    CLN-CELL  MAX. CHANGE    CLN-CELL  MAX. CHANGE    CLN-CELL  MAX. CHANGE    CLN-CELL  MAX. CHANGE    CLN-CELL
 ------------------------------------------------------------------------------------------------------------------------------------
  -0.39578E-01,          2  0.13097E-07,          1

 NO OUTPUT CONTROL FOR STRESS PERIOD        1   TIME STEP       26

 WRITING "   FLOW CLN FACE" BELOW AT TIME STEP     26, STRESS PERIOD      1
 CLN CELL AND LIST OF CONNECTED CLN CELLS AND FLOWS
         1         2   -2642.38    
         2         1    2642.38    

 WRITING "      GWF TO CLN" BELOW AT TIME STEP     26, STRESS PERIOD      1
   0.264238E+04   0.601976E+05
 
 SOLVING FOR HEAD 

 Outer-Iteration  Inner-Iteration  Backtracking  Number of        Incoming       Outgoing  Maximum HeadChange      Maximum Head Change
     Number           Count           Flag       Backtracks       Residual       Residual           Value              Location
        1                             0             0           678083.          678083.    
        1                3                                                                       -0.439681E-01           2    48    48  lay row col
        1                3                                                                       -0.380587E-01                 2           CLN-node number
        2                             0             0          0.211017E-06     0.211017E-06
        2                1                                                                        0.276681E-07           1    50    50  lay row col
        2                1                                                                        0.128240E-07                 1           CLN-node number
     2 CALLS TO SPARSE MATRIX SOLVER PACKAGE  IN FLOW TIME STEP  27 STRESS PERIOD   1

 TOTAL OF       2OUTER ITERATIONS
  MAXIMUM CHANGE FOR EACH ITERATION:
  MAX. CHANGE   LAYER,  ROW,  COL MAX. CHANGE   LAYER,  ROW,  COL MAX. CHANGE   LAYER,  ROW,  COL MAX. CHANGE   LAYER,  ROW,  COL MAX. CHANGE   LAYER,  ROW,  COL
 ------------------------------------------------------------------------------------------------------------------------------------------
  -0.4397E-01 (    2,   48,   48)  0.2767E-07 (    1,   50,   50)

  MAXIMUM CHANGE FOR CLN NODE AT EACH ITERATION:
   MAX. CHANGE    CLN-CELL  MAX. CHANGE    CLN-CELL  MAX. CHANGE    CLN-CELL  MAX. CHANGE    CLN-CELL  MAX. CHANGE    CLN-CELL
 ------------------------------------------------------------------------------------------------------------------------------------
  -0.38059E-01,          2  0.12824E-07,          1

 NO OUTPUT CONTROL FOR STRESS PERIOD        1   TIME STEP       27

 WRITING "   FLOW CLN FACE" BELOW AT TIME STEP     27, STRESS PERIOD      1
 CLN CELL AND LIST OF CONNECTED CLN CELLS AND FLOWS
         1         2   -2662.51    
         2         1    2662.51    

 WRITING "      GWF TO CLN" BELOW AT TIME STEP     27, STRESS PERIOD      1
   0.266251E+04   0.601775E+05
 
 SOLVING FOR HEAD 

 Outer-Iteration  Inner-Iteration  Backtracking  Number of        Incoming       Outgoing  Maximum HeadChange      Maximum Head Change
     Number           Count           Flag       Backtracks       Residual       Residual           Value              Location
        1                             0             0           654291.          654291.    
        1                3                                                                       -0.423345E-01           2    48    48  lay row col
        1                3                                                                       -0.366521E-01                 2           CLN-node number
        2                             0             0          0.245721E-06     0.245721E-06
        2                1                                                                        0.247834E-07           1    50    50  lay row col
        2                1                                                                        0.132274E-07                 1           CLN-node number
     2 CALLS TO SPARSE MATRIX SOLVER PACKAGE  IN FLOW TIME STEP  28 STRESS PERIOD   1

 TOTAL OF       2OUTER ITERATIONS
  MAXIMUM CHANGE FOR EACH ITERATION:
  MAX. CHANGE   LAYER,  ROW,  COL MAX. CHANGE   LAYER,  ROW,  COL MAX. CHANGE   LAYER,  ROW,  COL MAX. CHANGE   LAYER,  ROW,  COL MAX. CHANGE   LAYER,  ROW,  COL
 ------------------------------------------------------------------------------------------------------------------------------------------
  -0.4233E-01 (    2,   48,   48)  0.2478E-07 (    1,   50,   50)

  MAXIMUM CHANGE FOR CLN NODE AT EACH ITERATION:
   MAX. CHANGE    CLN-CELL  MAX. CHANGE    CLN-CELL  MAX. CHANGE    CLN-CELL  MAX. CHANGE    CLN-CELL  MAX. CHANGE    CLN-CELL
 ------------------------------------------------------------------------------------------------------------------------------------
  -0.36652E-01,          2  0.13227E-07,          1

 NO OUTPUT CONTROL FOR STRESS PERIOD        1   TIME STEP       28

 WRITING "   FLOW CLN FACE" BELOW AT TIME STEP     28, STRESS PERIOD      1
 CLN CELL AND LIST OF CONNECTED CLN CELLS AND FLOWS
         1         2   -2681.82    
         2         1    2681.82    

 WRITING "      GWF TO CLN" BELOW AT TIME STEP     28, STRESS PERIOD      1
   0.268182E+04   0.601582E+05
 
 SOLVING FOR HEAD 

 Outer-Iteration  Inner-Iteration  Backtracking  Number of        Incoming       Outgoing  Maximum HeadChange      Maximum Head Change
     Number           Count           Flag       Backtracks       Residual       Residual           Value              Location
        1                             0             0           632507.          632507.    
        1                3                                                                       -0.408182E-01           2    48    48  lay row col
        1                3                                                                       -0.353465E-01                 2           CLN-node number
        2                             0             0          0.296297E-06     0.296297E-06
        2                1                                                                        0.223758E-07           1    50    50  lay row col
        2                1                                                                        0.144360E-07                 1           CLN-node number
     2 CALLS TO SPARSE MATRIX SOLVER PACKAGE  IN FLOW TIME STEP  29 STRESS PERIOD   1

 TOTAL OF       2OUTER ITERATIONS
  MAXIMUM CHANGE FOR EACH ITERATION:
  MAX. CHANGE   LAYER,  ROW,  COL MAX. CHANGE   LAYER,  ROW,  COL MAX. CHANGE   LAYER,  ROW,  COL MAX. CHANGE   LAYER,  ROW,  COL MAX. CHANGE   LAYER,  ROW,  COL
 ------------------------------------------------------------------------------------------------------------------------------------------
  -0.4082E-01 (    2,   48,   48)  0.2238E-07 (    1,   50,   50)

  MAXIMUM CHANGE FOR CLN NODE AT EACH ITERATION:
   MAX. CHANGE    CLN-CELL  MAX. CHANGE    CLN-CELL  MAX. CHANGE    CLN-CELL  MAX. CHANGE    CLN-CELL  MAX. CHANGE    CLN-CELL
 ------------------------------------------------------------------------------------------------------------------------------------
  -0.35347E-01,          2  0.14436E-07,          1

 NO OUTPUT CONTROL FOR STRESS PERIOD        1   TIME STEP       29

 WRITING "   FLOW CLN FACE" BELOW AT TIME STEP     29, STRESS PERIOD      1
 CLN CELL AND LIST OF CONNECTED CLN CELLS AND FLOWS
         1         2   -2700.38    
         2         1    2700.38    

 WRITING "      GWF TO CLN" BELOW AT TIME STEP     29, STRESS PERIOD      1
   0.270038E+04   0.601396E+05
 
 SOLVING FOR HEAD 

 Outer-Iteration  Inner-Iteration  Backtracking  Number of        Incoming       Outgoing  Maximum HeadChange      Maximum Head Change
     Number           Count           Flag       Backtracks       Residual       Residual           Value              Location
        1                             0             0           612530.          612530.    
        1                3                                                                       -0.394073E-01           2    48    48  lay row col
        1                3                                                                       -0.341316E-01                 2           CLN-node number
        2                             0             0          0.371070E-06     0.371070E-06
        2                1                                                                       -0.205554E-07           2    71     4  lay row col
        2                1                                                                        0.165213E-07                 1           CLN-node number
     2 CALLS TO SPARSE MATRIX SOLVER PACKAGE  IN FLOW TIME STEP  30 STRESS PERIOD   1

 TOTAL OF       2OUTER ITERATIONS
  MAXIMUM CHANGE FOR EACH ITERATION:
[...]
       0.4777      0.4685      0.4587      0.4484      0.4378      0.4268      0.4155      0.4040      0.3924      0.3806    
       0.3687      0.3569      0.3451      0.3334      0.3218      0.3104      0.2993      0.2883      0.2777      0.2674    
       0.2574      0.2478      0.2386      0.2298      0.2214      0.2135      0.2061      0.1991      0.1927      0.1867    
       0.1813      0.1764      0.1720      0.1681      0.1648      0.1621      0.1599      0.1582      0.1571      0.1565    
  88   0.1622      0.1628      0.1639      0.1655      0.1677      0.1704      0.1736      0.1774      0.1817      0.1865    
       0.1918      0.1976      0.2039      0.2107      0.2179      0.2256      0.2336      0.2421      0.2510      0.2602    
       0.2698      0.2796      0.2898      0.3002      0.3108      0.3215      0.3324      0.3434      0.3544      0.3654    
       0.3763      0.3871      0.3978      0.4083      0.4185      0.4283      0.4378      0.4469      0.4554      0.4635    
       0.4709      0.4777      0.4838      0.4892      0.4938      0.4976      0.5006      0.5027      0.5040      0.5044    
       0.5040      0.5026      0.5005      0.4974      0.4936      0.4889      0.4835      0.4773      0.4705      0.4630    
       0.4549      0.4463      0.4371      0.4276      0.4176      0.4074      0.3968      0.3860      0.3751      0.3640    
       0.3529      0.3418      0.3307      0.3197      0.3088      0.2980      0.2875      0.2771      0.2671      0.2573    
       0.2478      0.2387      0.2300      0.2217      0.2137      0.2062      0.1991      0.1925      0.1864      0.1807    
       0.1755      0.1708      0.1667      0.1630      0.1598      0.1572      0.1551      0.1535      0.1524      0.1519    
  89   0.1576      0.1581      0.1591      0.1607      0.1628      0.1654      0.1685      0.1721      0.1762      0.1807    
       0.1858      0.1913      0.1973      0.2038      0.2106      0.2179      0.2256      0.2337      0.2421      0.2508    
       0.2599      0.2692      0.2788      0.2887      0.2987      0.3088      0.3191      0.3294      0.3398      0.3501    
       0.3604      0.3706      0.3806      0.3904      0.4000      0.4092      0.4181      0.4266      0.4346      0.4421    
       0.4490      0.4553      0.4610      0.4660      0.4703      0.4739      0.4767      0.4787      0.4798      0.4802    
       0.4798      0.4786      0.4765      0.4737      0.4701      0.4658      0.4607      0.4550      0.4486      0.4416    
       0.4340      0.4260      0.4174      0.4085      0.3992      0.3895      0.3796      0.3695      0.3592      0.3488    
       0.3384      0.3279      0.3174      0.3070      0.2967      0.2865      0.2766      0.2668      0.2572      0.2480    
       0.2390      0.2304      0.2221      0.2141      0.2066      0.1994      0.1927      0.1864      0.1805      0.1751    
       0.1702      0.1657      0.1617      0.1582      0.1552      0.1527      0.1506      0.1491      0.1481      0.1476    
  90   0.1533      0.1538      0.1548      0.1563      0.1582      0.1607      0.1637      0.1671      0.1710      0.1754    
       0.1802      0.1855      0.1912      0.1974      0.2039      0.2109      0.2182      0.2259      0.2339      0.2422    
       0.2508      0.2597      0.2688      0.2781      0.2876      0.2972      0.3069      0.3167      0.3265      0.3362    
       0.3459      0.3555      0.3650      0.3742      0.3832      0.3919      0.4002      0.4081      0.4156      0.4226    
       0.4291      0.4351      0.4404      0.4451      0.4491      0.4524      0.4550      0.4569      0.4580      0.4583    
       0.4579      0.4568      0.4549      0.4522      0.4489      0.4448      0.4401      0.4347      0.4287      0.4222    
       0.4151      0.4075      0.3995      0.3911      0.3824      0.3733      0.3640      0.3545      0.3448      0.3350    
       0.3251      0.3152      0.3053      0.2954      0.2857      0.2760      0.2666      0.2573      0.2482      0.2394    
       0.2309      0.2227      0.2148      0.2072      0.2000      0.1932      0.1867      0.1807      0.1751      0.1699    
       0.1652      0.1609      0.1571      0.1538      0.1509      0.1485      0.1465      0.1451      0.1441      0.1436    
  91   0.1493      0.1498      0.1508      0.1522      0.1541      0.1565      0.1593      0.1626      0.1663      0.1705    
       0.1752      0.1802      0.1857      0.1916      0.1978      0.2045      0.2114      0.2188      0.2264      0.2343    
       0.2426      0.2510      0.2597      0.2685      0.2775      0.2866      0.2959      0.3051      0.3144      0.3237    
       0.3328      0.3419      0.3508      0.3595      0.3680      0.3762      0.3840      0.3915      0.3986      0.4052    
       0.4113      0.4168      0.4218      0.4262      0.4300      0.4331      0.4355      0.4373      0.4383      0.4386    
       0.4383      0.4372      0.4354      0.4329      0.4298      0.4259      0.4215      0.4165      0.4108      0.4047    
       0.3980      0.3909      0.3834      0.3755      0.3672      0.3587      0.3499      0.3409      0.3317      0.3224    
       0.3131      0.3037      0.2943      0.2849      0.2757      0.2665      0.2575      0.2487      0.2400      0.2316    
       0.2235      0.2156      0.2081      0.2009      0.1940      0.1874      0.1813      0.1755      0.1702      0.1652    
       0.1607      0.1566      0.1529      0.1497      0.1469      0.1446      0.1428      0.1414      0.1404      0.1400    
  92   0.1457      0.1462      0.1471      0.1485      0.1503      0.1526      0.1553      0.1585      0.1621      0.1661    
       0.1706      0.1754      0.1807      0.1863      0.1923      0.1987      0.2054      0.2124      0.2197      0.2273    
       0.2351      0.2432      0.2514      0.2599      0.2685      0.2772      0.2859      0.2948      0.3036      0.3124    
       0.3211      0.3297      0.3381      0.3464      0.3544      0.3622      0.3696      0.3766      0.3833      0.3895    
       0.3953      0.4005      0.4053      0.4094      0.4129      0.4159      0.4182      0.4198      0.4208      0.4211    
       0.4208      0.4197      0.4180      0.4157      0.4127      0.4091      0.4050      0.4002      0.3949      0.3891    
       0.3828      0.3761      0.3689      0.3615      0.3536      0.3455      0.3372      0.3287      0.3200      0.3112    
       0.3023      0.2933      0.2844      0.2755      0.2667      0.2579      0.2493      0.2409      0.2326      0.2246    
       0.2168      0.2093      0.2021      0.1951      0.1885      0.1823      0.1764      0.1708      0.1657      0.1609    
       0.1566      0.1526      0.1491      0.1460      0.1434      0.1411      0.1393      0.1380      0.1371      0.1367    
  93   0.1425      0.1430      0.1439      0.1452      0.1470      0.1492      0.1518      0.1548      0.1583      0.1622    
       0.1665      0.1711      0.1762      0.1816      0.1874      0.1935      0.1999      0.2067      0.2137      0.2210    
       0.2285      0.2362      0.2441      0.2522      0.2605      0.2688      0.2772      0.2856      0.2940      0.3024    
       0.3107      0.3189      0.3269      0.3348      0.3424      0.3498      0.3568      0.3635      0.3699      0.3758    
       0.3812      0.3862      0.3907      0.3946      0.3979      0.4007      0.4029      0.4044      0.4054      0.4057    
       0.4053      0.4044      0.4028      0.4006      0.3977      0.3943      0.3904      0.3859      0.3808      0.3753    
       0.3694      0.3630      0.3562      0.3491      0.3417      0.3339      0.3260      0.3179      0.3096      0.3012    
       0.2927      0.2842      0.2756      0.2671      0.2587      0.2503      0.2421      0.2340      0.2261      0.2184    
       0.2109      0.2037      0.1967      0.1901      0.1837      0.1777      0.1720      0.1667      0.1617      0.1571    
       0.1529      0.1491      0.1457      0.1427      0.1402      0.1380      0.1363      0.1350      0.1341      0.1337    
  94   0.1397      0.1402      0.1410      0.1423      0.1440      0.1461      0.1487      0.1516      0.1550      0.1587    
       0.1629      0.1674      0.1723      0.1775      0.1831      0.1890      0.1952      0.2017      0.2084      0.2155    
       0.2227      0.2301      0.2378      0.2455      0.2534      0.2614      0.2695      0.2775      0.2856      0.2937    
       0.3016      0.3095      0.3172      0.3247      0.3320      0.3390      0.3457      0.3521      0.3582      0.3638    
       0.3690      0.3737      0.3780      0.3817      0.3849      0.3876      0.3896      0.3911      0.3920      0.3923    
       0.3920      0.3910      0.3895      0.3874      0.3847      0.3815      0.3777      0.3734      0.3686      0.3634    
       0.3577      0.3516      0.3451      0.3383      0.3312      0.3238      0.3163      0.3085      0.3005      0.2925    
       0.2843      0.2762      0.2680      0.2598      0.2517      0.2436      0.2357      0.2279      0.2203      0.2129    
       0.2057      0.1987      0.1920      0.1856      0.1795      0.1736      0.1681      0.1630      0.1582      0.1538    
       0.1497      0.1460      0.1427      0.1398      0.1373      0.1353      0.1336      0.1323      0.1315      0.1311    
  95   0.1373      0.1377      0.1385      0.1398      0.1415      0.1435      0.1460      0.1489      0.1521      0.1558    
       0.1598      0.1642      0.1689      0.1740      0.1794      0.1851      0.1911      0.1974      0.2039      0.2107    
       0.2177      0.2249      0.2323      0.2398      0.2474      0.2551      0.2629      0.2707      0.2785      0.2862    
       0.2939      0.3014      0.3088      0.3160      0.3230      0.3298      0.3363      0.3424      0.3482      0.3536    
       0.3586      0.3631      0.3672      0.3708      0.3738      0.3764      0.3783      0.3798      0.3806      0.3809    
       0.3806      0.3797      0.3782      0.3762      0.3736      0.3705      0.3669      0.3628      0.3582      0.3532    
       0.3477      0.3419      0.3357      0.3291      0.3223      0.3152      0.3079      0.3004      0.2928      0.2850    
       0.2772      0.2693      0.2614      0.2535      0.2457      0.2379      0.2303      0.2227      0.2154      0.2082    
       0.2012      0.1945      0.1880      0.1818      0.1758      0.1702      0.1648      0.1598      0.1552      0.1509    
       0.1469      0.1434      0.1402      0.1373      0.1349      0.1329      0.1313      0.1301      0.1292      0.1288    
  96   0.1353      0.1357      0.1365      0.1377      0.1393      0.1413      0.1438      0.1465      0.1497      0.1533    
       0.1572      0.1615      0.1661      0.1710      0.1763      0.1818      0.1877      0.1938      0.2002      0.2068    
       0.2136      0.2206      0.2277      0.2350      0.2424      0.2499      0.2574      0.2650      0.2725      0.2800    
       0.2874      0.2947      0.3019      0.3089      0.3156      0.3222      0.3284      0.3343      0.3399      0.3451    
       0.3500      0.3543      0.3583      0.3617      0.3647      0.3671      0.3690      0.3704      0.3712      0.3714    
       0.3711      0.3703      0.3689      0.3669      0.3645      0.3615      0.3580      0.3540      0.3496      0.3447    
       0.3395      0.3338      0.3278      0.3215      0.3149      0.3081      0.3010      0.2938      0.2864      0.2789    
       0.2713      0.2636      0.2560      0.2483      0.2407      0.2332      0.2257      0.2184      0.2113      0.2043    
       0.1975      0.1909      0.1846      0.1786      0.1728      0.1673      0.1621      0.1572      0.1527      0.1485    
       0.1446      0.1411      0.1380      0.1353      0.1329      0.1309      0.1293      0.1281      0.1274      0.1270    
  97   0.1336      0.1340      0.1348      0.1360      0.1376      0.1396      0.1420      0.1447      0.1478      0.1513    
       0.1551      0.1593      0.1638      0.1687      0.1738      0.1792      0.1850      0.1909      0.1972      0.2036    
       0.2103      0.2171      0.2241      0.2312      0.2384      0.2457      0.2531      0.2604      0.2678      0.2751    
       0.2823      0.2894      0.2964      0.3032      0.3097      0.3161      0.3222      0.3279      0.3333      0.3384    
       0.3431      0.3473      0.3511      0.3545      0.3573      0.3597      0.3615      0.3629      0.3637      0.3639    
       0.3636      0.3628      0.3614      0.3595      0.3571      0.3542      0.3509      0.3470      0.3427      0.3380    
       0.3329      0.3274      0.3216      0.3154      0.3090      0.3024      0.2955      0.2884      0.2812      0.2739    
       0.2665      0.2591      0.2516      0.2441      0.2367      0.2294      0.2221      0.2150      0.2080      0.2012    
       0.1945      0.1881      0.1819      0.1760      0.1703      0.1650      0.1599      0.1551      0.1506      0.1465    
       0.1428      0.1393      0.1363      0.1336      0.1313      0.1293      0.1278      0.1266      0.1258      0.1254    
  98   0.1324      0.1328      0.1336      0.1348      0.1363      0.1383      0.1406      0.1433      0.1464      0.1498    
       0.1536      0.1577      0.1621      0.1669      0.1719      0.1773      0.1829      0.1888      0.1949      0.2013    
       0.2078      0.2145      0.2214      0.2283      0.2354      0.2426      0.2498      0.2570      0.2642      0.2714    
       0.2784      0.2854      0.2922      0.2989      0.3053      0.3115      0.3175      0.3231      0.3284      0.3334    
       0.3379      0.3421      0.3458      0.3491      0.3519      0.3542      0.3560      0.3573      0.3580      0.3583    
       0.3580      0.3572      0.3559      0.3540      0.3517      0.3488      0.3455      0.3418      0.3376      0.3329    
       0.3279      0.3226      0.3169      0.3109      0.3046      0.2981      0.2914      0.2845      0.2774      0.2702    
       0.2630      0.2557      0.2483      0.2410      0.2337      0.2265      0.2194      0.2124      0.2055      0.1988    
       0.1923      0.1860      0.1799      0.1741      0.1685      0.1632      0.1582      0.1535      0.1491      0.1451    
       0.1414      0.1380      0.1350      0.1323      0.1301      0.1281      0.1266      0.1255      0.1247      0.1243    
  99   0.1316      0.1320      0.1328      0.1339      0.1355      0.1374      0.1397      0.1424      0.1454      0.1488    
       0.1525      0.1566      0.1610      0.1657      0.1707      0.1760      0.1816      0.1874      0.1934      0.1997    
       0.2061      0.2128      0.2195      0.2264      0.2334      0.2405      0.2476      0.2547      0.2618      0.2689    
       0.2759      0.2827      0.2895      0.2960      0.3024      0.3085      0.3144      0.3199      0.3251      0.3300    
       0.3345      0.3386      0.3423      0.3455      0.3482      0.3505      0.3523      0.3536      0.3543      0.3546    
       0.3543      0.3535      0.3522      0.3504      0.3480      0.3453      0.3420      0.3383      0.3341      0.3296    
       0.3247      0.3194      0.3138      0.3079      0.3017      0.2952      0.2886      0.2818      0.2748      0.2678    
       0.2606      0.2534      0.2462      0.2389      0.2318      0.2246      0.2176      0.2107      0.2039      0.1973    
       0.1908      0.1846      0.1786      0.1728      0.1673      0.1620      0.1571      0.1524      0.1481      0.1441    
       0.1404      0.1371      0.1341      0.1315      0.1292      0.1274      0.1258      0.1247      0.1239      0.1236    
 100   0.1312      0.1316      0.1323      0.1335      0.1350      0.1370      0.1392      0.1419      0.1449      0.1483    
       0.1520      0.1560      0.1604      0.1651      0.1701      0.1753      0.1809      0.1866      0.1927      0.1989    
       0.2053      0.2119      0.2186      0.2255      0.2324      0.2395      0.2465      0.2536      0.2607      0.2677    
       0.2746      0.2814      0.2881      0.2946      0.3009      0.3070      0.3128      0.3183      0.3235      0.3283    
       0.3328      0.3369      0.3405      0.3437      0.3464      0.3487      0.3504      0.3517      0.3525      0.3527    
       0.3524      0.3516      0.3503      0.3485      0.3462      0.3435      0.3402      0.3365      0.3324      0.3279    
       0.3230      0.3178      0.3122      0.3063      0.3002      0.2938      0.2872      0.2805      0.2736      0.2665    
       0.2594      0.2523      0.2451      0.2379      0.2308      0.2237      0.2167      0.2098      0.2031      0.1965    
       0.1901      0.1839      0.1779      0.1722      0.1667      0.1615      0.1565      0.1519      0.1476      0.1436    
       0.1400      0.1367      0.1337      0.1311      0.1288      0.1270      0.1254      0.1243      0.1236      0.1232    

 DRAWDOWN WILL BE SAVED ON UNIT   31 AT END OF TIME STEP  60, STRESS PERIOD    1
1
         CLN HEADS IN LAYER   1 AT END OF TIME STEP  60 IN STRESS PERIOD    1
  ---------------------------------------------------------------------------

            1           2
 ........................
   1    5.344       5.344    
1
      CLN DRAWDOWN IN LAYER   1 AT END OF TIME STEP  60 IN STRESS PERIOD    1
  ---------------------------------------------------------------------------

            1           2
 ........................
   1    4.656       24.66    
1
  VOLUMETRIC BUDGET FOR ENTIRE MODEL AT END OF TIME STEP      60 IN STRESS PERIOD       1
  ---------------------------------------------------------------------------------------

     CUMULATIVE VOLUMES      L**3       RATES FOR THIS TIME STEP      L**3/T
     ------------------                 ------------------------

           IN:                                      IN:
           ---                                      ---
             STORAGE =      175952.4824               STORAGE =       62839.9996
         CLN STORAGE =           0.0000           CLN STORAGE =           0.0000
       CONSTANT HEAD =           0.0000         CONSTANT HEAD =           0.0000
      CLN CONST HEAD =           0.0000        CLN CONST HEAD =           0.0000
               WELLS =           0.0000                 WELLS =           0.0000

            TOTAL IN =      175952.4824              TOTAL IN =       62839.9996

          OUT:                                     OUT:
          ----                                     ----
             STORAGE =           0.4849               STORAGE =           0.0000
         CLN STORAGE =           0.0000           CLN STORAGE =           0.0000
       CONSTANT HEAD =           0.0000         CONSTANT HEAD =           0.0000
      CLN CONST HEAD =           0.0000        CLN CONST HEAD =           0.0000
               WELLS =      175952.0007                 WELLS =       62840.0000

           TOTAL OUT =      175952.4856             TOTAL OUT =       62840.0000

            IN - OUT =      -3.2459E-03              IN - OUT =      -4.4129E-04

 PERCENT DISCREPANCY =          -0.00     PERCENT DISCREPANCY =          -0.00






          TIME SUMMARY AT END OF TIME STEP        60 IN STRESS PERIOD         1
                    SECONDS     MINUTES      HOURS       DAYS        YEARS
                    -----------------------------------------------------------
   TIME STEP LENGTH  4032.0      67.200      1.1200     4.66667E-02 1.27766E-04
 STRESS PERIOD TIME 2.41920E+05  4032.0      67.200      2.8000     7.66598E-03
         TOTAL TIME 2.41920E+05  4032.0      67.200      2.8000     7.66598E-03
1

 Run end date and time (yyyy/mm/dd hh:mm:ss): 2014/03/21  7:20:04
 Elapsed run time:  3.197 Seconds

