 LISTING FILE: p6.LST
                         UNIT   6

 OPENING p6.BAS
 FILE TYPE:BAS   UNIT   1

 OPENING p6.BCF
 FILE TYPE:BCF   UNIT  11

 OPENING p6.WEL
 FILE TYPE:WEL   UNIT  12

 OPENING p6.SIP
 FILE TYPE:SIP   UNIT  19

 OPENING p6.OC
 FILE TYPE:OC   UNIT  22

 OPENING p6.FTL
 FILE TYPE:LMT   UNIT  32
1                                 MODFLOW
      U.S. GEOLOGICAL SURVEY MODULAR FINITE-DIFFERENCE GROUND-WATER FLOW MODEL

 MT3DMS benchmark test problem #6                                                
 transport in 2-D radial flow field during an injection/withdrawl cycle          
    1 LAYERS        31 ROWS        31 COLUMNS
   2 STRESS PERIOD(S) IN SIMULATION
 MODEL TIME UNIT IS DAYS

 BAS5 -- BASIC MODEL PACKAGE, VERSION 5, 1/1/95 INPUT READ FROM UNIT  1
 ARRAYS RHS AND BUFF WILL SHARE MEMORY
 INITIAL HEAD WILL NOT BE KEPT THROUGHOUT THE SIMULATION, WHICH MEANS
 DRAWDOWN CANNOT BE CALCULATED
       7754 ELEMENTS IN X ARRAY ARE USED BY BAS
       7754 ELEMENTS OF X ARRAY USED OUT OF  999999999

 BCF5 -- BLOCK-CENTERED FLOW PACKAGE, VERSION 5, 9/1/93 INPUT READ FROM UNIT 11
 TRANSIENT SIMULATION
 HEAD AT CELLS THAT CONVERT TO DRY=  0.10000E+31
 WETTING CAPABILITY IS NOT ACTIVE
      LAYER  LAYER-TYPE CODE     INTERBLOCK T
      --------------------------------------------
         1            0          0 -- HARMONIC    
        962 ELEMENTS IN X ARRAY ARE USED BY BCF
       8716 ELEMENTS OF X ARRAY USED OUT OF  999999999

 WEL5 -- WELL PACKAGE, VERSION 5, 9/1/93 INPUT READ FROM UNIT 12
 MAXIMUM OF    2 WELLS
          8 ELEMENTS IN X ARRAY ARE USED BY WEL
       8724 ELEMENTS OF X ARRAY USED OUT OF  999999999

 SIP5 -- STRONGLY IMPLICIT PROCEDURE SOLUTION PACKAGE
                    VERSION 5, 9/1/93 INPUT READ FROM UNIT 19
 MAXIMUM OF 100 ITERATIONS ALLOWED FOR CLOSURE
  5 ITERATION PARAMETERS
       4249 ELEMENTS IN X ARRAY ARE USED BY SIP
      12973 ELEMENTS OF X ARRAY USED OUT OF  999999999
1
 MT3DMS benchmark test problem #6                                                
 transport in 2-D radial flow field during an injection/withdrawl cycle          



                     BOUNDARY ARRAY FOR LAYER   1
 READING ON UNIT   1 WITH FORMAT: (31I2)              

 AQUIFER HEAD WILL BE SET TO  999.99     AT ALL NO-FLOW NODES (IBOUND=0).



                       INITIAL HEAD FOR LAYER   1
 READING ON UNIT   1 WITH FORMAT: (4x,10f16.0)        

            1           2           3           4           5           6           7           8           9          10
           11          12          13          14          15          16          17          18          19          20
           21          22          23          24          25          26          27          28          29          30
           31
 ........................................................................................................................
   1   1.3555E+06  1.3510E+06  1.3464E+06  1.3419E+06  1.3375E+06  1.3332E+06  1.3290E+06  1.3251E+06  1.3214E+06  1.3181E+06
       1.3151E+06  1.3126E+06  1.3106E+06  1.3091E+06  1.3082E+06  1.3079E+06  1.3082E+06  1.3091E+06  1.3106E+06  1.3126E+06
       1.3151E+06  1.3181E+06  1.3214E+06  1.3251E+06  1.3290E+06  1.3332E+06  1.3375E+06  1.3419E+06  1.3464E+06  1.3510E+06
       1.3555E+06
   2   1.3510E+06  1.3460E+06  1.3411E+06  1.3363E+06  1.3314E+06  1.3267E+06  1.3222E+06  1.3178E+06  1.3137E+06  1.3100E+06
       1.3066E+06  1.3038E+06  1.3015E+06  1.2998E+06  1.2987E+06  1.2984E+06  1.2987E+06  1.2998E+06  1.3015E+06  1.3038E+06
       1.3066E+06  1.3100E+06  1.3137E+06  1.3178E+06  1.3222E+06  1.3267E+06  1.3314E+06  1.3363E+06  1.3411E+06  1.3460E+06
       1.3510E+06
   3   1.3464E+06  1.3411E+06  1.3359E+06  1.3306E+06  1.3253E+06  1.3202E+06  1.3151E+06  1.3103E+06  1.3057E+06  1.3015E+06
       1.2977E+06  1.2944E+06  1.2918E+06  1.2898E+06  1.2886E+06  1.2882E+06  1.2886E+06  1.2898E+06  1.2918E+06  1.2944E+06
       1.2977E+06  1.3015E+06  1.3057E+06  1.3103E+06  1.3151E+06  1.3202E+06  1.3253E+06  1.3306E+06  1.3359E+06  1.3411E+06
       1.3464E+06
   4   1.3419E+06  1.3363E+06  1.3306E+06  1.3249E+06  1.3191E+06  1.3135E+06  1.3079E+06  1.3025E+06  1.2973E+06  1.2925E+06
       1.2882E+06  1.2844E+06  1.2814E+06  1.2791E+06  1.2777E+06  1.2772E+06  1.2777E+06  1.2791E+06  1.2814E+06  1.2844E+06
       1.2882E+06  1.2925E+06  1.2973E+06  1.3025E+06  1.3079E+06  1.3135E+06  1.3191E+06  1.3249E+06  1.3306E+06  1.3363E+06
       1.3419E+06
   5   1.3375E+06  1.3314E+06  1.3253E+06  1.3191E+06  1.3129E+06  1.3066E+06  1.3005E+06  1.2944E+06  1.2886E+06  1.2831E+06
       1.2781E+06  1.2738E+06  1.2702E+06  1.2675E+06  1.2658E+06  1.2652E+06  1.2658E+06  1.2675E+06  1.2702E+06  1.2738E+06
       1.2781E+06  1.2831E+06  1.2886E+06  1.2944E+06  1.3005E+06  1.3066E+06  1.3129E+06  1.3191E+06  1.3253E+06  1.3314E+06
       1.3375E+06
   6   1.3332E+06  1.3267E+06  1.3202E+06  1.3135E+06  1.3066E+06  1.2998E+06  1.2929E+06  1.2861E+06  1.2795E+06  1.2733E+06
       1.2675E+06  1.2623E+06  1.2580E+06  1.2548E+06  1.2528E+06  1.2521E+06  1.2528E+06  1.2548E+06  1.2580E+06  1.2623E+06
       1.2675E+06  1.2733E+06  1.2795E+06  1.2861E+06  1.2929E+06  1.2998E+06  1.3066E+06  1.3135E+06  1.3202E+06  1.3267E+06
       1.3332E+06
   7   1.3290E+06  1.3222E+06  1.3151E+06  1.3079E+06  1.3005E+06  1.2929E+06  1.2853E+06  1.2777E+06  1.2702E+06  1.2629E+06
       1.2561E+06  1.2500E+06  1.2449E+06  1.2409E+06  1.2385E+06  1.2376E+06  1.2385E+06  1.2409E+06  1.2449E+06  1.2500E+06
       1.2561E+06  1.2629E+06  1.2702E+06  1.2777E+06  1.2853E+06  1.2929E+06  1.3005E+06  1.3079E+06  1.3151E+06  1.3222E+06
       1.3290E+06
   8   1.3251E+06  1.3178E+06  1.3103E+06  1.3025E+06  1.2944E+06  1.2861E+06  1.2777E+06  1.2691E+06  1.2605E+06  1.2521E+06
       1.2441E+06  1.2368E+06  1.2305E+06  1.2256E+06  1.2225E+06  1.2214E+06  1.2225E+06  1.2256E+06  1.2305E+06  1.2368E+06
       1.2441E+06  1.2521E+06  1.2605E+06  1.2691E+06  1.2777E+06  1.2861E+06  1.2944E+06  1.3025E+06  1.3103E+06  1.3178E+06
       1.3251E+06
   9   1.3214E+06  1.3137E+06  1.3057E+06  1.2973E+06  1.2886E+06  1.2795E+06  1.2702E+06  1.2605E+06  1.2507E+06  1.2409E+06
       1.2314E+06  1.2225E+06  1.2147E+06  1.2085E+06  1.2045E+06  1.2031E+06  1.2045E+06  1.2085E+06  1.2147E+06  1.2225E+06
       1.2314E+06  1.2409E+06  1.2507E+06  1.2605E+06  1.2702E+06  1.2795E+06  1.2886E+06  1.2973E+06  1.3057E+06  1.3137E+06
       1.3214E+06
  10   1.3181E+06  1.3100E+06  1.3015E+06  1.2925E+06  1.2831E+06  1.2733E+06  1.2629E+06  1.2521E+06  1.2409E+06  1.2295E+06
       1.2181E+06  1.2072E+06  1.1972E+06  1.1891E+06  1.1838E+06  1.1819E+06  1.1838E+06  1.1891E+06  1.1972E+06  1.2072E+06
       1.2181E+06  1.2295E+06  1.2409E+06  1.2521E+06  1.2629E+06  1.2733E+06  1.2831E+06  1.2925E+06  1.3015E+06  1.3100E+06
       1.3181E+06
  11   1.3151E+06  1.3066E+06  1.2977E+06  1.2882E+06  1.2781E+06  1.2675E+06  1.2561E+06  1.2441E+06  1.2314E+06  1.2181E+06
       1.2045E+06  1.1908E+06  1.1780E+06  1.1670E+06  1.1595E+06  1.1568E+06  1.1595E+06  1.1670E+06  1.1780E+06  1.1908E+06
       1.2045E+06  1.2181E+06  1.2314E+06  1.2441E+06  1.2561E+06  1.2675E+06  1.2781E+06  1.2882E+06  1.2977E+06  1.3066E+06
       1.3151E+06
  12   1.3126E+06  1.3038E+06  1.2944E+06  1.2844E+06  1.2738E+06  1.2623E+06  1.2500E+06  1.2368E+06  1.2225E+06  1.2072E+06
       1.1908E+06  1.1738E+06  1.1568E+06  1.1415E+06  1.1303E+06  1.1261E+06  1.1303E+06  1.1415E+06  1.1568E+06  1.1738E+06
       1.1908E+06  1.2072E+06  1.2225E+06  1.2368E+06  1.2500E+06  1.2623E+06  1.2738E+06  1.2844E+06  1.2944E+06  1.3038E+06
       1.3126E+06
  13   1.3106E+06  1.3015E+06  1.2918E+06  1.2814E+06  1.2702E+06  1.2580E+06  1.2449E+06  1.2305E+06  1.2147E+06  1.1972E+06
       1.1780E+06  1.1568E+06  1.1342E+06  1.1118E+06  1.0938E+06  1.0866E+06  1.0938E+06  1.1118E+06  1.1342E+06  1.1568E+06
       1.1780E+06  1.1972E+06  1.2147E+06  1.2305E+06  1.2449E+06  1.2580E+06  1.2702E+06  1.2814E+06  1.2918E+06  1.3015E+06
       1.3106E+06
  14   1.3091E+06  1.2998E+06  1.2898E+06  1.2791E+06  1.2675E+06  1.2548E+06  1.2409E+06  1.2256E+06  1.2085E+06  1.1891E+06
       1.1670E+06  1.1415E+06  1.1118E+06  1.0785E+06  1.0462E+06  1.0308E+06  1.0462E+06  1.0785E+06  1.1118E+06  1.1415E+06
       1.1670E+06  1.1891E+06  1.2085E+06  1.2256E+06  1.2409E+06  1.2548E+06  1.2675E+06  1.2791E+06  1.2898E+06  1.2998E+06
       1.3091E+06
  15   1.3082E+06  1.2987E+06  1.2886E+06  1.2777E+06  1.2658E+06  1.2528E+06  1.2385E+06  1.2225E+06  1.2045E+06  1.1838E+06
       1.1595E+06  1.1303E+06  1.0938E+06  1.0462E+06  9.8315E+05  9.3550E+05  9.8315E+05  1.0462E+06  1.0938E+06  1.1303E+06
       1.1595E+06  1.1838E+06  1.2045E+06  1.2225E+06  1.2385E+06  1.2528E+06  1.2658E+06  1.2777E+06  1.2886E+06  1.2987E+06
       1.3082E+06
  16   1.3079E+06  1.2984E+06  1.2882E+06  1.2772E+06  1.2652E+06  1.2521E+06  1.2376E+06  1.2214E+06  1.2031E+06  1.1819E+06
       1.1568E+06  1.1261E+06  1.0866E+06  1.0308E+06  9.3550E+05   100.0      9.3550E+05  1.0308E+06  1.0866E+06  1.1261E+06
       1.1568E+06  1.1819E+06  1.2031E+06  1.2214E+06  1.2376E+06  1.2521E+06  1.2652E+06  1.2772E+06  1.2882E+06  1.2984E+06
       1.3079E+06
  17   1.3082E+06  1.2987E+06  1.2886E+06  1.2777E+06  1.2658E+06  1.2528E+06  1.2385E+06  1.2225E+06  1.2045E+06  1.1838E+06
       1.1595E+06  1.1303E+06  1.0938E+06  1.0462E+06  9.8315E+05  9.3550E+05  9.8315E+05  1.0462E+06  1.0938E+06  1.1303E+06
       1.1595E+06  1.1838E+06  1.2045E+06  1.2225E+06  1.2385E+06  1.2528E+06  1.2658E+06  1.2777E+06  1.2886E+06  1.2987E+06
       1.3082E+06
  18   1.3091E+06  1.2998E+06  1.2898E+06  1.2791E+06  1.2675E+06  1.2548E+06  1.2409E+06  1.2256E+06  1.2085E+06  1.1891E+06
       1.1670E+06  1.1415E+06  1.1118E+06  1.0785E+06  1.0462E+06  1.0308E+06  1.0462E+06  1.0785E+06  1.1118E+06  1.1415E+06
       1.1670E+06  1.1891E+06  1.2085E+06  1.2256E+06  1.2409E+06  1.2548E+06  1.2675E+06  1.2791E+06  1.2898E+06  1.2998E+06
       1.3091E+06
  19   1.3106E+06  1.3015E+06  1.2918E+06  1.2814E+06  1.2702E+06  1.2580E+06  1.2449E+06  1.2305E+06  1.2147E+06  1.1972E+06
       1.1780E+06  1.1568E+06  1.1342E+06  1.1118E+06  1.0938E+06  1.0866E+06  1.0938E+06  1.1118E+06  1.1342E+06  1.1568E+06
       1.1780E+06  1.1972E+06  1.2147E+06  1.2305E+06  1.2449E+06  1.2580E+06  1.2702E+06  1.2814E+06  1.2918E+06  1.3015E+06
       1.3106E+06
  20   1.3126E+06  1.3038E+06  1.2944E+06  1.2844E+06  1.2738E+06  1.2623E+06  1.2500E+06  1.2368E+06  1.2225E+06  1.2072E+06
       1.1908E+06  1.1738E+06  1.1568E+06  1.1415E+06  1.1303E+06  1.1261E+06  1.1303E+06  1.1415E+06  1.1568E+06  1.1738E+06
       1.1908E+06  1.2072E+06  1.2225E+06  1.2368E+06  1.2500E+06  1.2623E+06  1.2738E+06  1.2844E+06  1.2944E+06  1.3038E+06
       1.3126E+06
  21   1.3151E+06  1.3066E+06  1.2977E+06  1.2882E+06  1.2781E+06  1.2675E+06  1.2561E+06  1.2441E+06  1.2314E+06  1.2181E+06
       1.2045E+06  1.1908E+06  1.1780E+06  1.1670E+06  1.1595E+06  1.1568E+06  1.1595E+06  1.1670E+06  1.1780E+06  1.1908E+06
       1.2045E+06  1.2181E+06  1.2314E+06  1.2441E+06  1.2561E+06  1.2675E+06  1.2781E+06  1.2882E+06  1.2977E+06  1.3066E+06
       1.3151E+06
  22   1.3181E+06  1.3100E+06  1.3015E+06  1.2925E+06  1.2831E+06  1.2733E+06  1.2629E+06  1.2521E+06  1.2409E+06  1.2295E+06
       1.2181E+06  1.2072E+06  1.1972E+06  1.1891E+06  1.1838E+06  1.1819E+06  1.1838E+06  1.1891E+06  1.1972E+06  1.2072E+06
       1.2181E+06  1.2295E+06  1.2409E+06  1.2521E+06  1.2629E+06  1.2733E+06  1.2831E+06  1.2925E+06  1.3015E+06  1.3100E+06
       1.3181E+06
  23   1.3214E+06  1.3137E+06  1.3057E+06  1.2973E+06  1.2886E+06  1.2795E+06  1.2702E+06  1.2605E+06  1.2507E+06  1.2409E+06
       1.2314E+06  1.2225E+06  1.2147E+06  1.2085E+06  1.2045E+06  1.2031E+06  1.2045E+06  1.2085E+06  1.2147E+06  1.2225E+06
       1.2314E+06  1.2409E+06  1.2507E+06  1.2605E+06  1.2702E+06  1.2795E+06  1.2886E+06  1.2973E+06  1.3057E+06  1.3137E+06
       1.3214E+06
  24   1.3251E+06  1.3178E+06  1.3103E+06  1.3025E+06  1.2944E+06  1.2861E+06  1.2777E+06  1.2691E+06  1.2605E+06  1.2521E+06
       1.2441E+06  1.2368E+06  1.2305E+06  1.2256E+06  1.2225E+06  1.2214E+06  1.2225E+06  1.2256E+06  1.2305E+06  1.2368E+06
       1.2441E+06  1.2521E+06  1.2605E+06  1.2691E+06  1.2777E+06  1.2861E+06  1.2944E+06  1.3025E+06  1.3103E+06  1.3178E+06
       1.3251E+06
  25   1.3290E+06  1.3222E+06  1.3151E+06  1.3079E+06  1.3005E+06  1.2929E+06  1.2853E+06  1.2777E+06  1.2702E+06  1.2629E+06
       1.2561E+06  1.2500E+06  1.2449E+06  1.2409E+06  1.2385E+06  1.2376E+06  1.2385E+06  1.2409E+06  1.2449E+06  1.2500E+06
       1.2561E+06  1.2629E+06  1.2702E+06  1.2777E+06  1.2853E+06  1.2929E+06  1.3005E+06  1.3079E+06  1.3151E+06  1.3222E+06
       1.3290E+06
  26   1.3332E+06  1.3267E+06  1.3202E+06  1.3135E+06  1.3066E+06  1.2998E+06  1.2929E+06  1.2861E+06  1.2795E+06  1.2733E+06
       1.2675E+06  1.2623E+06  1.2580E+06  1.2548E+06  1.2528E+06  1.2521E+06  1.2528E+06  1.2548E+06  1.2580E+06  1.2623E+06
       1.2675E+06  1.2733E+06  1.2795E+06  1.2861E+06  1.2929E+06  1.2998E+06  1.3066E+06  1.3135E+06  1.3202E+06  1.3267E+06
       1.3332E+06
  27   1.3375E+06  1.3314E+06  1.3253E+06  1.3191E+06  1.3129E+06  1.3066E+06  1.3005E+06  1.2944E+06  1.2886E+06  1.2831E+06
       1.2781E+06  1.2738E+06  1.2702E+06  1.2675E+06  1.2658E+06  1.2652E+06  1.2658E+06  1.2675E+06  1.2702E+06  1.2738E+06
       1.2781E+06  1.2831E+06  1.2886E+06  1.2944E+06  1.3005E+06  1.3066E+06  1.3129E+06  1.3191E+06  1.3253E+06  1.3314E+06
       1.3375E+06
  28   1.3419E+06  1.3363E+06  1.3306E+06  1.3249E+06  1.3191E+06  1.3135E+06  1.3079E+06  1.3025E+06  1.2973E+06  1.2925E+06
       1.2882E+06  1.2844E+06  1.2814E+06  1.2791E+06  1.2777E+06  1.2772E+06  1.2777E+06  1.2791E+06  1.2814E+06  1.2844E+06
       1.2882E+06  1.2925E+06  1.2973E+06  1.3025E+06  1.3079E+06  1.3135E+06  1.3191E+06  1.3249E+06  1.3306E+06  1.3363E+06
       1.3419E+06
  29   1.3464E+06  1.3411E+06  1.3359E+06  1.3306E+06  1.3253E+06  1.3202E+06  1.3151E+06  1.3103E+06  1.3057E+06  1.3015E+06
       1.2977E+06  1.2944E+06  1.2918E+06  1.2898E+06  1.2886E+06  1.2882E+06  1.2886E+06  1.2898E+06  1.2918E+06  1.2944E+06
       1.2977E+06  1.3015E+06  1.3057E+06  1.3103E+06  1.3151E+06  1.3202E+06  1.3253E+06  1.3306E+06  1.3359E+06  1.3411E+06
       1.3464E+06
  30   1.3510E+06  1.3460E+06  1.3411E+06  1.3363E+06  1.3314E+06  1.3267E+06  1.3222E+06  1.3178E+06  1.3137E+06  1.3100E+06
       1.3066E+06  1.3038E+06  1.3015E+06  1.2998E+06  1.2987E+06  1.2984E+06  1.2987E+06  1.2998E+06  1.3015E+06  1.3038E+06
       1.3066E+06  1.3100E+06  1.3137E+06  1.3178E+06  1.3222E+06  1.3267E+06  1.3314E+06  1.3363E+06  1.3411E+06  1.3460E+06
       1.3510E+06
  31   1.3555E+06  1.3510E+06  1.3464E+06  1.3419E+06  1.3375E+06  1.3332E+06  1.3290E+06  1.3251E+06  1.3214E+06  1.3181E+06
       1.3151E+06  1.3126E+06  1.3106E+06  1.3091E+06  1.3082E+06  1.3079E+06  1.3082E+06  1.3091E+06  1.3106E+06  1.3126E+06
       1.3151E+06  1.3181E+06  1.3214E+06  1.3251E+06  1.3290E+06  1.3332E+06  1.3375E+06  1.3419E+06  1.3464E+06  1.3510E+06
       1.3555E+06

 OUTPUT CONTROL IS SPECIFIED EVERY TIME STEP
 HEAD PRINT FORMAT CODE IS   1    DRAWDOWN PRINT FORMAT CODE IS   1
 HEADS WILL BE SAVED ON UNIT   0    DRAWDOWNS WILL BE SAVED ON UNIT   0

 COLUMN TO ROW ANISOTROPY =   1.000000    

                     DELR =   900.0000    

                     DELC =   900.0000    

     PRIMARY STORAGE COEF =   0.000000     FOR LAYER   1

     TRANSMIS. ALONG ROWS =  0.1000000     FOR LAYER   1



          SOLUTION BY THE STRONGLY IMPLICIT PROCEDURE
          -------------------------------------------
 MAXIMUM ITERATIONS ALLOWED FOR CLOSURE =      100
                 ACCELERATION PARAMETER =     1.0000    
      HEAD CHANGE CRITERION FOR CLOSURE =    0.10000E-03
      SIP HEAD CHANGE PRINTOUT INTERVAL =        1

     5 ITERATION PARAMETERS CALCULATED FROM SPECIFIED WSEED = 0.00100000 :

  0.000000E+00 0.822172E+00 0.968377E+00 0.994377E+00 0.999000E+00
1
                            STRESS PERIOD NO.   1, LENGTH =   912.5000    
                            ----------------------------------------------

                              NUMBER OF TIME STEPS =     1

                               MULTIPLIER FOR DELT =     1.000

                            INITIAL TIME STEP SIZE =   912.5000    


     1 WELLS

 LAYER   ROW   COL   STRESS RATE   WELL NO.
 ------------------------------------------
    1     16    16     86400.          1

    60 ITERATIONS FOR TIME STEP   1 IN STRESS PERIOD  1

 MAXIMUM HEAD CHANGE FOR EACH ITERATION:

    HEAD CHANGE   HEAD CHANGE   HEAD CHANGE   HEAD CHANGE   HEAD CHANGE
  LAYER,ROW,COL LAYER,ROW,COL LAYER,ROW,COL LAYER,ROW,COL LAYER,ROW,COL
 ----------------------------------------------------------------------
     0.1322E+07    0.2634E+06    0.2085E+06    0.2061E+06    0.7559E+05
  (  1, 16, 16) (  1, 17, 15) (  1, 17, 17) (  1, 14, 19) (  1, 17, 24)
    -0.1120E+05   -0.1781E+05   -0.1397E+05    -9747.        -5792.    
  (  1, 14, 21) (  1, 13, 20) (  1, 15, 17) (  1, 14, 23) (  1, 22, 20)
      876.6         1305.         692.3         870.3         741.7    
  (  1, 15, 26) (  1, 19, 23) (  1, 15, 25) (  1, 21, 22) (  1, 16, 16)
      122.3         171.3         177.8        -200.1        -128.2    
  (  1, 11, 21) (  1, 10, 21) (  1, 11, 20) (  1, 16, 16) (  1, 11, 21)
      32.01         52.72         38.92         41.04        -22.64    
  (  1, 16, 16) (  1, 16, 16) (  1, 16, 16) (  1, 12, 19) (  1, 16, 16)
      4.476         7.098        -5.823         5.039        -3.635    
  (  1, 21, 21) (  1, 21, 21) (  1, 10, 21) (  1, 16, 16) (  1, 20, 21)
    -0.6957        -1.289        -1.155        -1.100        0.6340    
  (  1, 15, 16) (  1, 15, 16) (  1, 16, 16) (  1, 12, 19) (  1, 16, 16)
    -0.1109       -0.1906        0.1602       -0.1747        0.1082    
  (  1, 21, 21) (  1, 21, 21) (  1, 10, 21) (  1, 16, 16) (  1, 20, 21)
     0.2283E-01    0.3931E-01    0.3603E-01    0.3053E-01   -0.1979E-01
  (  1, 15, 16) (  1, 15, 16) (  1, 16, 16) (  1, 12, 19) (  1, 16, 16)
     0.3760E-02    0.6499E-02   -0.4468E-02    0.5560E-02   -0.3171E-02
  (  1, 21, 21) (  1, 20, 20) (  1, 10, 21) (  1, 16, 16) (  1, 20, 20)
    -0.6292E-03   -0.1085E-02   -0.1105E-02   -0.8506E-03    0.5891E-03
  (  1, 15, 16) (  1, 15, 16) (  1, 15, 15) (  1, 11, 19) (  1, 15, 15)
    -0.1132E-03   -0.2000E-03   -0.1285E-03   -0.1776E-03    0.9433E-04
  (  1, 20, 20) (  1, 20, 20) (  1, 20, 21) (  1, 16, 16) (  1, 20, 20)


 HEAD/DRAWDOWN PRINTOUT FLAG = 1     TOTAL BUDGET PRINTOUT FLAG = 0
 CELL-BY-CELL FLOW TERM FLAG = 1

 OUTPUT FLAGS FOR ALL LAYERS ARE THE SAME:
   HEAD    DRAWDOWN  HEAD  DRAWDOWN
 PRINTOUT  PRINTOUT  SAVE    SAVE
 ----------------------------------
     1         0       1       0

 SATURATED THICKNESS AND FLOW TERMS SAVED ON UNIT 32 FOR MT3D BY LINKMT3D PACKAGE 5.0
1
              HEAD IN LAYER  1 AT END OF TIME STEP  1 IN STRESS PERIOD  1
  -----------------------------------------------------------------------

           1          2          3          4          5          6          7          8          9         10         11
          12         13         14         15         16         17         18         19         20         21         22
          23         24         25         26         27         28         29         30         31
 .........................................................................................................................
   1   1.356E+06  1.351E+06  1.346E+06  1.342E+06  1.337E+06  1.333E+06  1.329E+06  1.325E+06  1.321E+06  1.318E+06  1.315E+06
       1.313E+06  1.311E+06  1.309E+06  1.308E+06  1.308E+06  1.308E+06  1.309E+06  1.311E+06  1.313E+06  1.315E+06  1.318E+06
       1.321E+06  1.325E+06  1.329E+06  1.333E+06  1.337E+06  1.342E+06  1.346E+06  1.351E+06  1.356E+06
   2   1.351E+06  1.348E+06  1.345E+06  1.343E+06  1.340E+06  1.337E+06  1.335E+06  1.332E+06  1.330E+06  1.328E+06  1.327E+06
       1.325E+06  1.324E+06  1.323E+06  1.323E+06  1.322E+06  1.323E+06  1.323E+06  1.324E+06  1.325E+06  1.327E+06  1.328E+06
       1.330E+06  1.332E+06  1.335E+06  1.337E+06  1.340E+06  1.343E+06  1.345E+06  1.348E+06  1.351E+06
   3   1.346E+06  1.345E+06  1.344E+06  1.343E+06  1.342E+06  1.341E+06  1.340E+06  1.339E+06  1.339E+06  1.338E+06  1.338E+06
       1.337E+06  1.337E+06  1.337E+06  1.337E+06  1.337E+06  1.337E+06  1.337E+06  1.337E+06  1.337E+06  1.338E+06  1.338E+06
       1.339E+06  1.339E+06  1.340E+06  1.341E+06  1.342E+06  1.343E+06  1.344E+06  1.345E+06  1.346E+06
   4   1.342E+06  1.343E+06  1.343E+06  1.344E+06  1.344E+06  1.345E+06  1.346E+06  1.346E+06  1.347E+06  1.348E+06  1.349E+06
       1.349E+06  1.350E+06  1.351E+06  1.351E+06  1.351E+06  1.351E+06  1.351E+06  1.350E+06  1.349E+06  1.349E+06  1.348E+06
       1.347E+06  1.346E+06  1.346E+06  1.345E+06  1.344E+06  1.344E+06  1.343E+06  1.343E+06  1.342E+06
   5   1.337E+06  1.340E+06  1.342E+06  1.344E+06  1.347E+06  1.349E+06  1.351E+06  1.353E+06  1.355E+06  1.358E+06  1.360E+06
       1.362E+06  1.363E+06  1.364E+06  1.365E+06  1.365E+06  1.365E+06  1.364E+06  1.363E+06  1.362E+06  1.360E+06  1.358E+06
       1.355E+06  1.353E+06  1.351E+06  1.349E+06  1.347E+06  1.344E+06  1.342E+06  1.340E+06  1.337E+06
   6   1.333E+06  1.337E+06  1.341E+06  1.345E+06  1.349E+06  1.352E+06  1.356E+06  1.360E+06  1.364E+06  1.367E+06  1.371E+06
       1.374E+06  1.377E+06  1.379E+06  1.380E+06  1.380E+06  1.380E+06  1.379E+06  1.377E+06  1.374E+06  1.371E+06  1.367E+06
       1.364E+06  1.360E+06  1.356E+06  1.352E+06  1.349E+06  1.345E+06  1.341E+06  1.337E+06  1.333E+06
   7   1.329E+06  1.335E+06  1.340E+06  1.346E+06  1.351E+06  1.356E+06  1.362E+06  1.367E+06  1.372E+06  1.377E+06  1.382E+06
       1.387E+06  1.391E+06  1.394E+06  1.396E+06  1.396E+06  1.396E+06  1.394E+06  1.391E+06  1.387E+06  1.382E+06  1.377E+06
       1.372E+06  1.367E+06  1.362E+06  1.356E+06  1.351E+06  1.346E+06  1.340E+06  1.335E+06  1.329E+06
   8   1.325E+06  1.332E+06  1.339E+06  1.346E+06  1.353E+06  1.360E+06  1.367E+06  1.374E+06  1.381E+06  1.388E+06  1.394E+06
       1.400E+06  1.406E+06  1.410E+06  1.413E+06  1.414E+06  1.413E+06  1.410E+06  1.406E+06  1.400E+06  1.394E+06  1.388E+06
       1.381E+06  1.374E+06  1.367E+06  1.360E+06  1.353E+06  1.346E+06  1.339E+06  1.332E+06  1.325E+06
   9   1.321E+06  1.330E+06  1.339E+06  1.347E+06  1.355E+06  1.364E+06  1.372E+06  1.381E+06  1.390E+06  1.398E+06  1.407E+06
       1.415E+06  1.422E+06  1.428E+06  1.431E+06  1.433E+06  1.431E+06  1.428E+06  1.422E+06  1.415E+06  1.407E+06  1.398E+06
       1.390E+06  1.381E+06  1.372E+06  1.364E+06  1.355E+06  1.347E+06  1.339E+06  1.330E+06  1.321E+06
  10   1.318E+06  1.328E+06  1.338E+06  1.348E+06  1.358E+06  1.367E+06  1.377E+06  1.388E+06  1.398E+06  1.409E+06  1.420E+06
       1.430E+06  1.439E+06  1.447E+06  1.453E+06  1.454E+06  1.453E+06  1.447E+06  1.439E+06  1.430E+06  1.420E+06  1.409E+06
       1.398E+06  1.388E+06  1.377E+06  1.367E+06  1.358E+06  1.348E+06  1.338E+06  1.328E+06  1.318E+06
  11   1.315E+06  1.327E+06  1.338E+06  1.349E+06  1.360E+06  1.371E+06  1.382E+06  1.394E+06  1.407E+06  1.420E+06  1.433E+06
       1.446E+06  1.459E+06  1.469E+06  1.477E+06  1.480E+06  1.477E+06  1.469E+06  1.459E+06  1.446E+06  1.433E+06  1.420E+06
       1.407E+06  1.394E+06  1.382E+06  1.371E+06  1.360E+06  1.349E+06  1.338E+06  1.327E+06  1.315E+06
  12   1.313E+06  1.325E+06  1.337E+06  1.349E+06  1.362E+06  1.374E+06  1.387E+06  1.400E+06  1.415E+06  1.430E+06  1.446E+06
       1.463E+06  1.480E+06  1.495E+06  1.506E+06  1.511E+06  1.506E+06  1.495E+06  1.480E+06  1.463E+06  1.446E+06  1.430E+06
       1.415E+06  1.400E+06  1.387E+06  1.374E+06  1.362E+06  1.349E+06  1.337E+06  1.325E+06  1.313E+06
  13   1.311E+06  1.324E+06  1.337E+06  1.350E+06  1.363E+06  1.377E+06  1.391E+06  1.406E+06  1.422E+06  1.439E+06  1.459E+06
       1.480E+06  1.502E+06  1.524E+06  1.543E+06  1.552E+06  1.543E+06  1.524E+06  1.502E+06  1.480E+06  1.459E+06  1.439E+06
       1.422E+06  1.406E+06  1.391E+06  1.377E+06  1.363E+06  1.350E+06  1.337E+06  1.324E+06  1.311E+06
  14   1.309E+06  1.323E+06  1.337E+06  1.351E+06  1.364E+06  1.379E+06  1.394E+06  1.410E+06  1.428E+06  1.447E+06  1.469E+06
       1.495E+06  1.524E+06  1.557E+06  1.589E+06  1.609E+06  1.589E+06  1.557E+06  1.524E+06  1.495E+06  1.469E+06  1.447E+06
       1.428E+06  1.410E+06  1.394E+06  1.379E+06  1.364E+06  1.351E+06  1.337E+06  1.323E+06  1.309E+06
  15   1.308E+06  1.323E+06  1.337E+06  1.351E+06  1.365E+06  1.380E+06  1.396E+06  1.413E+06  1.431E+06  1.453E+06  1.477E+06
       1.506E+06  1.543E+06  1.589E+06  1.648E+06  1.707E+06  1.648E+06  1.589E+06  1.543E+06  1.506E+06  1.477E+06  1.453E+06
       1.431E+06  1.413E+06  1.396E+06  1.380E+06  1.365E+06  1.351E+06  1.337E+06  1.323E+06  1.308E+06
  16   1.308E+06  1.322E+06  1.337E+06  1.351E+06  1.365E+06  1.380E+06  1.396E+06  1.414E+06  1.433E+06  1.454E+06  1.480E+06
       1.511E+06  1.552E+06  1.609E+06  1.707E+06  1.923E+06  1.707E+06  1.609E+06  1.552E+06  1.511E+06  1.480E+06  1.454E+06
       1.433E+06  1.414E+06  1.396E+06  1.380E+06  1.365E+06  1.351E+06  1.337E+06  1.322E+06  1.308E+06
  17   1.308E+06  1.323E+06  1.337E+06  1.351E+06  1.365E+06  1.380E+06  1.396E+06  1.413E+06  1.431E+06  1.453E+06  1.477E+06
       1.506E+06  1.543E+06  1.589E+06  1.648E+06  1.707E+06  1.648E+06  1.589E+06  1.543E+06  1.506E+06  1.477E+06  1.453E+06
       1.431E+06  1.413E+06  1.396E+06  1.380E+06  1.365E+06  1.351E+06  1.337E+06  1.323E+06  1.308E+06
  18   1.309E+06  1.323E+06  1.337E+06  1.351E+06  1.364E+06  1.379E+06  1.394E+06  1.410E+06  1.428E+06  1.447E+06  1.469E+06
       1.495E+06  1.524E+06  1.557E+06  1.589E+06  1.609E+06  1.589E+06  1.557E+06  1.524E+06  1.495E+06  1.469E+06  1.447E+06
       1.428E+06  1.410E+06  1.394E+06  1.379E+06  1.364E+06  1.351E+06  1.337E+06  1.323E+06  1.309E+06
  19   1.311E+06  1.324E+06  1.337E+06  1.350E+06  1.363E+06  1.377E+06  1.391E+06  1.406E+06  1.422E+06  1.439E+06  1.459E+06
       1.480E+06  1.502E+06  1.524E+06  1.543E+06  1.552E+06  1.543E+06  1.524E+06  1.502E+06  1.480E+06  1.459E+06  1.439E+06
       1.422E+06  1.406E+06  1.391E+06  1.377E+06  1.363E+06  1.350E+06  1.337E+06  1.324E+06  1.311E+06
  20   1.313E+06  1.325E+06  1.337E+06  1.349E+06  1.362E+06  1.374E+06  1.387E+06  1.400E+06  1.415E+06  1.430E+06  1.446E+06
       1.463E+06  1.480E+06  1.495E+06  1.506E+06  1.511E+06  1.506E+06  1.495E+06  1.480E+06  1.463E+06  1.446E+06  1.430E+06
       1.415E+06  1.400E+06  1.387E+06  1.374E+06  1.362E+06  1.349E+06  1.337E+06  1.325E+06  1.313E+06
  21   1.315E+06  1.327E+06  1.338E+06  1.349E+06  1.360E+06  1.371E+06  1.382E+06  1.394E+06  1.407E+06  1.420E+06  1.433E+06
       1.446E+06  1.459E+06  1.469E+06  1.477E+06  1.480E+06  1.477E+06  1.469E+06  1.459E+06  1.446E+06  1.433E+06  1.420E+06
       1.407E+06  1.394E+06  1.382E+06  1.371E+06  1.360E+06  1.349E+06  1.338E+06  1.327E+06  1.315E+06
  22   1.318E+06  1.328E+06  1.338E+06  1.348E+06  1.358E+06  1.367E+06  1.377E+06  1.388E+06  1.398E+06  1.409E+06  1.420E+06
       1.430E+06  1.439E+06  1.447E+06  1.453E+06  1.454E+06  1.453E+06  1.447E+06  1.439E+06  1.430E+06  1.420E+06  1.409E+06
       1.398E+06  1.388E+06  1.377E+06  1.367E+06  1.358E+06  1.348E+06  1.338E+06  1.328E+06  1.318E+06
  23   1.321E+06  1.330E+06  1.339E+06  1.347E+06  1.355E+06  1.364E+06  1.372E+06  1.381E+06  1.390E+06  1.398E+06  1.407E+06
       1.415E+06  1.422E+06  1.428E+06  1.431E+06  1.433E+06  1.431E+06  1.428E+06  1.422E+06  1.415E+06  1.407E+06  1.398E+06
       1.390E+06  1.381E+06  1.372E+06  1.364E+06  1.355E+06  1.347E+06  1.339E+06  1.330E+06  1.321E+06
  24   1.325E+06  1.332E+06  1.339E+06  1.346E+06  1.353E+06  1.360E+06  1.367E+06  1.374E+06  1.381E+06  1.388E+06  1.394E+06
       1.400E+06  1.406E+06  1.410E+06  1.413E+06  1.414E+06  1.413E+06  1.410E+06  1.406E+06  1.400E+06  1.394E+06  1.388E+06
       1.381E+06  1.374E+06  1.367E+06  1.360E+06  1.353E+06  1.346E+06  1.339E+06  1.332E+06  1.325E+06
  25   1.329E+06  1.335E+06  1.340E+06  1.346E+06  1.351E+06  1.356E+06  1.362E+06  1.367E+06  1.372E+06  1.377E+06  1.382E+06
       1.387E+06  1.391E+06  1.394E+06  1.396E+06  1.396E+06  1.396E+06  1.394E+06  1.391E+06  1.387E+06  1.382E+06  1.377E+06
       1.372E+06  1.367E+06  1.362E+06  1.356E+06  1.351E+06  1.346E+06  1.340E+06  1.335E+06  1.329E+06
  26   1.333E+06  1.337E+06  1.341E+06  1.345E+06  1.349E+06  1.352E+06  1.356E+06  1.360E+06  1.364E+06  1.367E+06  1.371E+06
       1.374E+06  1.377E+06  1.379E+06  1.380E+06  1.380E+06  1.380E+06  1.379E+06  1.377E+06  1.374E+06  1.371E+06  1.367E+06
       1.364E+06  1.360E+06  1.356E+06  1.352E+06  1.349E+06  1.345E+06  1.341E+06  1.337E+06  1.333E+06
  27   1.337E+06  1.340E+06  1.342E+06  1.344E+06  1.347E+06  1.349E+06  1.351E+06  1.353E+06  1.355E+06  1.358E+06  1.360E+06
       1.362E+06  1.363E+06  1.364E+06  1.365E+06  1.365E+06  1.365E+06  1.364E+06  1.363E+06  1.362E+06  1.360E+06  1.358E+06
       1.355E+06  1.353E+06  1.351E+06  1.349E+06  1.347E+06  1.344E+06  1.342E+06  1.340E+06  1.337E+06
  28   1.342E+06  1.343E+06  1.343E+06  1.344E+06  1.344E+06  1.345E+06  1.346E+06  1.346E+06  1.347E+06  1.348E+06  1.349E+06
       1.349E+06  1.350E+06  1.351E+06  1.351E+06  1.351E+06  1.351E+06  1.351E+06  1.350E+06  1.349E+06  1.349E+06  1.348E+06
       1.347E+06  1.346E+06  1.346E+06  1.345E+06  1.344E+06  1.344E+06  1.343E+06  1.343E+06  1.342E+06
  29   1.346E+06  1.345E+06  1.344E+06  1.343E+06  1.342E+06  1.341E+06  1.340E+06  1.339E+06  1.339E+06  1.338E+06  1.338E+06
       1.337E+06  1.337E+06  1.337E+06  1.337E+06  1.337E+06  1.337E+06  1.337E+06  1.337E+06  1.337E+06  1.338E+06  1.338E+06
       1.339E+06  1.339E+06  1.340E+06  1.341E+06  1.342E+06  1.343E+06  1.344E+06  1.345E+06  1.346E+06
  30   1.351E+06  1.348E+06  1.345E+06  1.343E+06  1.340E+06  1.337E+06  1.335E+06  1.332E+06  1.330E+06  1.328E+06  1.327E+06
       1.325E+06  1.324E+06  1.323E+06  1.323E+06  1.322E+06  1.323E+06  1.323E+06  1.324E+06  1.325E+06  1.327E+06  1.328E+06
       1.330E+06  1.332E+06  1.335E+06  1.337E+06  1.340E+06  1.343E+06  1.345E+06  1.348E+06  1.351E+06
  31   1.356E+06  1.351E+06  1.346E+06  1.342E+06  1.337E+06  1.333E+06  1.329E+06  1.325E+06  1.321E+06  1.318E+06  1.315E+06
       1.313E+06  1.311E+06  1.309E+06  1.308E+06  1.308E+06  1.308E+06  1.309E+06  1.311E+06  1.313E+06  1.315E+06  1.318E+06
       1.321E+06  1.325E+06  1.329E+06  1.333E+06  1.337E+06  1.342E+06  1.346E+06  1.351E+06  1.356E+06
1
  VOLUMETRIC BUDGET FOR ENTIRE MODEL AT END OF TIME STEP  1 IN STRESS PERIOD  1
  -----------------------------------------------------------------------------

     CUMULATIVE VOLUMES      L**3       RATES FOR THIS TIME STEP      L**3/T
     ------------------                 ------------------------

           IN:                                      IN:
           ---                                      ---
             STORAGE =           0.0000               STORAGE =           0.0000
       CONSTANT HEAD =     2824615.2500         CONSTANT HEAD =        3095.4688
               WELLS =    78840000.0000                 WELLS =       86400.0000

            TOTAL IN =    81664616.0000              TOTAL IN =       89495.4688

          OUT:                                     OUT:
          ----                                     ----
             STORAGE =           0.0000               STORAGE =           0.0000
       CONSTANT HEAD =    81664616.0000         CONSTANT HEAD =       89495.4688
               WELLS =           0.0000                 WELLS =           0.0000

           TOTAL OUT =    81664616.0000             TOTAL OUT =       89495.4688

            IN - OUT =          -0.7500              IN - OUT =           0.0000

 PERCENT DISCREPANCY =           0.00     PERCENT DISCREPANCY =           0.00






          TIME SUMMARY AT END OF TIME STEP  1 IN STRESS PERIOD  1
                    SECONDS     MINUTES      HOURS       DAYS        YEARS
                    -----------------------------------------------------------
   TIME STEP LENGTH 7.88400E+07 1.31400E+06  21900.      912.50      2.4983    
 STRESS PERIOD TIME 7.88400E+07 1.31400E+06  21900.      912.50      2.4983    
         TOTAL TIME 7.88400E+07 1.31400E+06  21900.      912.50      2.4983    
1
1
                            STRESS PERIOD NO.   2, LENGTH =   2737.500    
                            ----------------------------------------------

                              NUMBER OF TIME STEPS =     1

                               MULTIPLIER FOR DELT =     1.000

                            INITIAL TIME STEP SIZE =   2737.500    


     1 WELLS

 LAYER   ROW   COL   STRESS RATE   WELL NO.
 ------------------------------------------
    1     16    16    -86400.          1

    60 ITERATIONS FOR TIME STEP   1 IN STRESS PERIOD  2

 MAXIMUM HEAD CHANGE FOR EACH ITERATION:

    HEAD CHANGE   HEAD CHANGE   HEAD CHANGE   HEAD CHANGE   HEAD CHANGE
  LAYER,ROW,COL LAYER,ROW,COL LAYER,ROW,COL LAYER,ROW,COL LAYER,ROW,COL
 ----------------------------------------------------------------------
    -0.6245E+06   -0.1993E+06   -0.2020E+06   -0.2031E+06   -0.7274E+05
  (  1, 16, 16) (  1, 17, 15) (  1, 17, 17) (  1, 14, 19) (  1, 18, 24)
      9786.        0.1606E+05    0.1387E+05     9361.         5444.    
  (  1, 14, 21) (  1, 13, 20) (  1, 15, 17) (  1, 14, 23) (  1, 22, 20)
     -785.9        -1277.        -603.7        -870.2        -684.6    
  (  1, 15, 26) (  1, 20, 22) (  1, 16, 26) (  1, 21, 22) (  1, 16, 16)
     -104.9        -144.7        -167.9         168.2         119.1    
  (  1, 11, 21) (  1, 10, 21) (  1, 11, 20) (  1, 16, 16) (  1, 11, 21)
     -28.94        -48.87        -33.94        -39.37         20.00    
  (  1, 16, 16) (  1, 16, 16) (  1, 16, 16) (  1, 13, 18) (  1, 16, 16)
     -3.876        -6.056         5.548        -4.182         3.387    
  (  1, 21, 21) (  1, 21, 21) (  1, 11, 20) (  1, 16, 16) (  1, 20, 21)
     0.6575         1.229         1.013         1.058       -0.5725    
  (  1, 15, 16) (  1, 15, 16) (  1, 16, 16) (  1, 12, 19) (  1, 16, 16)
     0.9899E-01    0.1667       -0.1534        0.1480       -0.1013    
  (  1, 21, 21) (  1, 21, 21) (  1, 10, 21) (  1, 16, 16) (  1, 20, 21)
    -0.2136E-01   -0.3738E-01   -0.3193E-01   -0.2967E-01    0.1796E-01
  (  1, 15, 16) (  1, 15, 16) (  1, 16, 16) (  1, 12, 19) (  1, 15, 16)
    -0.3352E-02   -0.5658E-02    0.4314E-02   -0.4784E-02    0.2955E-02
  (  1, 21, 21) (  1, 20, 20) (  1, 10, 21) (  1, 16, 16) (  1, 20, 20)
     0.5975E-03    0.1045E-02    0.9870E-03    0.8270E-03   -0.5377E-03
  (  1, 15, 16) (  1, 15, 16) (  1, 15, 16) (  1, 11, 19) (  1, 15, 16)
     0.1010E-03    0.1764E-03    0.1205E-03    0.1547E-03   -0.8835E-04
  (  1, 20, 21) (  1, 20, 20) (  1, 21, 21) (  1, 16, 16) (  1, 20, 20)


 HEAD/DRAWDOWN PRINTOUT FLAG = 1     TOTAL BUDGET PRINTOUT FLAG = 0
 CELL-BY-CELL FLOW TERM FLAG = 1

 OUTPUT FLAGS FOR ALL LAYERS ARE THE SAME:
   HEAD    DRAWDOWN  HEAD  DRAWDOWN
 PRINTOUT  PRINTOUT  SAVE    SAVE
 ----------------------------------
     1         0       1       0

 SATURATED THICKNESS AND FLOW TERMS SAVED ON UNIT 32 FOR MT3D BY LINKMT3D PACKAGE 5.0
1
              HEAD IN LAYER  1 AT END OF TIME STEP  1 IN STRESS PERIOD  2
  -----------------------------------------------------------------------

           1          2          3          4          5          6          7          8          9         10         11
          12         13         14         15         16         17         18         19         20         21         22
          23         24         25         26         27         28         29         30         31
 .........................................................................................................................
   1   1.356E+06  1.351E+06  1.346E+06  1.342E+06  1.337E+06  1.333E+06  1.329E+06  1.325E+06  1.321E+06  1.318E+06  1.315E+06
       1.313E+06  1.311E+06  1.309E+06  1.308E+06  1.308E+06  1.308E+06  1.309E+06  1.311E+06  1.313E+06  1.315E+06  1.318E+06
       1.321E+06  1.325E+06  1.329E+06  1.333E+06  1.337E+06  1.342E+06  1.346E+06  1.351E+06  1.356E+06
   2   1.351E+06  1.346E+06  1.341E+06  1.336E+06  1.331E+06  1.327E+06  1.322E+06  1.318E+06  1.314E+06  1.310E+06  1.307E+06
       1.304E+06  1.301E+06  1.300E+06  1.299E+06  1.298E+06  1.299E+06  1.300E+06  1.301E+06  1.304E+06  1.307E+06  1.310E+06
       1.314E+06  1.318E+06  1.322E+06  1.327E+06  1.331E+06  1.336E+06  1.341E+06  1.346E+06  1.351E+06
   3   1.346E+06  1.341E+06  1.336E+06  1.331E+06  1.325E+06  1.320E+06  1.315E+06  1.310E+06  1.306E+06  1.301E+06  1.298E+06
       1.294E+06  1.292E+06  1.290E+06  1.289E+06  1.288E+06  1.289E+06  1.290E+06  1.292E+06  1.294E+06  1.298E+06  1.301E+06
       1.306E+06  1.310E+06  1.315E+06  1.320E+06  1.325E+06  1.331E+06  1.336E+06  1.341E+06  1.346E+06
   4   1.342E+06  1.336E+06  1.331E+06  1.325E+06  1.319E+06  1.313E+06  1.308E+06  1.303E+06  1.297E+06  1.293E+06  1.288E+06
       1.284E+06  1.281E+06  1.279E+06  1.278E+06  1.277E+06  1.278E+06  1.279E+06  1.281E+06  1.284E+06  1.288E+06  1.293E+06
       1.297E+06  1.303E+06  1.308E+06  1.313E+06  1.319E+06  1.325E+06  1.331E+06  1.336E+06  1.342E+06
   5   1.337E+06  1.331E+06  1.325E+06  1.319E+06  1.313E+06  1.307E+06  1.301E+06  1.294E+06  1.289E+06  1.283E+06  1.278E+06
       1.274E+06  1.270E+06  1.267E+06  1.266E+06  1.265E+06  1.266E+06  1.267E+06  1.270E+06  1.274E+06  1.278E+06  1.283E+06
       1.289E+06  1.294E+06  1.301E+06  1.307E+06  1.313E+06  1.319E+06  1.325E+06  1.331E+06  1.337E+06
   6   1.333E+06  1.327E+06  1.320E+06  1.313E+06  1.307E+06  1.300E+06  1.293E+06  1.286E+06  1.280E+06  1.273E+06  1.268E+06
       1.262E+06  1.258E+06  1.255E+06  1.253E+06  1.252E+06  1.253E+06  1.255E+06  1.258E+06  1.262E+06  1.268E+06  1.273E+06
       1.280E+06  1.286E+06  1.293E+06  1.300E+06  1.307E+06  1.313E+06  1.320E+06  1.327E+06  1.333E+06
   7   1.329E+06  1.322E+06  1.315E+06  1.308E+06  1.301E+06  1.293E+06  1.285E+06  1.278E+06  1.270E+06  1.263E+06  1.256E+06
       1.250E+06  1.245E+06  1.241E+06  1.238E+06  1.238E+06  1.238E+06  1.241E+06  1.245E+06  1.250E+06  1.256E+06  1.263E+06
       1.270E+06  1.278E+06  1.285E+06  1.293E+06  1.301E+06  1.308E+06  1.315E+06  1.322E+06  1.329E+06
   8   1.325E+06  1.318E+06  1.310E+06  1.303E+06  1.294E+06  1.286E+06  1.278E+06  1.269E+06  1.261E+06  1.252E+06  1.244E+06
       1.237E+06  1.230E+06  1.226E+06  1.222E+06  1.221E+06  1.222E+06  1.226E+06  1.230E+06  1.237E+06  1.244E+06  1.252E+06
       1.261E+06  1.269E+06  1.278E+06  1.286E+06  1.294E+06  1.303E+06  1.310E+06  1.318E+06  1.325E+06
   9   1.321E+06  1.314E+06  1.306E+06  1.297E+06  1.289E+06  1.280E+06  1.270E+06  1.261E+06  1.251E+06  1.241E+06  1.232E+06
       1.223E+06  1.215E+06  1.208E+06  1.204E+06  1.203E+06  1.204E+06  1.208E+06  1.215E+06  1.223E+06  1.232E+06  1.241E+06
       1.251E+06  1.261E+06  1.270E+06  1.280E+06  1.289E+06  1.297E+06  1.306E+06  1.314E+06  1.321E+06
  10   1.318E+06  1.310E+06  1.301E+06  1.293E+06  1.283E+06  1.273E+06  1.263E+06  1.252E+06  1.241E+06  1.230E+06  1.218E+06
       1.207E+06  1.197E+06  1.189E+06  1.184E+06  1.182E+06  1.184E+06  1.189E+06  1.197E+06  1.207E+06  1.218E+06  1.230E+06
       1.241E+06  1.252E+06  1.263E+06  1.273E+06  1.283E+06  1.293E+06  1.301E+06  1.310E+06  1.318E+06
  11   1.315E+06  1.307E+06  1.298E+06  1.288E+06  1.278E+06  1.268E+06  1.256E+06  1.244E+06  1.232E+06  1.218E+06  1.205E+06
       1.191E+06  1.178E+06  1.167E+06  1.159E+06  1.156E+06  1.159E+06  1.167E+06  1.178E+06  1.191E+06  1.205E+06  1.218E+06
       1.232E+06  1.244E+06  1.256E+06  1.268E+06  1.278E+06  1.288E+06  1.298E+06  1.307E+06  1.315E+06
  12   1.313E+06  1.304E+06  1.294E+06  1.284E+06  1.274E+06  1.262E+06  1.250E+06  1.237E+06  1.223E+06  1.207E+06  1.191E+06
       1.174E+06  1.157E+06  1.142E+06  1.130E+06  1.125E+06  1.130E+06  1.142E+06  1.157E+06  1.174E+06  1.191E+06  1.207E+06
       1.223E+06  1.237E+06  1.250E+06  1.262E+06  1.274E+06  1.284E+06  1.294E+06  1.304E+06  1.313E+06
  13   1.311E+06  1.301E+06  1.292E+06  1.281E+06  1.270E+06  1.258E+06  1.245E+06  1.230E+06  1.215E+06  1.197E+06  1.178E+06
       1.157E+06  1.135E+06  1.113E+06  1.094E+06  1.085E+06  1.094E+06  1.113E+06  1.135E+06  1.157E+06  1.178E+06  1.197E+06
       1.215E+06  1.230E+06  1.245E+06  1.258E+06  1.270E+06  1.281E+06  1.292E+06  1.301E+06  1.311E+06
  14   1.309E+06  1.300E+06  1.290E+06  1.279E+06  1.267E+06  1.255E+06  1.241E+06  1.226E+06  1.208E+06  1.189E+06  1.167E+06
       1.142E+06  1.113E+06  1.080E+06  1.047E+06  1.027E+06  1.047E+06  1.080E+06  1.113E+06  1.142E+06  1.167E+06  1.189E+06
       1.208E+06  1.226E+06  1.241E+06  1.255E+06  1.267E+06  1.279E+06  1.290E+06  1.300E+06  1.309E+06
  15   1.308E+06  1.299E+06  1.289E+06  1.278E+06  1.266E+06  1.253E+06  1.238E+06  1.222E+06  1.204E+06  1.184E+06  1.159E+06
       1.130E+06  1.094E+06  1.047E+06  9.882E+05  9.292E+05  9.882E+05  1.047E+06  1.094E+06  1.130E+06  1.159E+06  1.184E+06
       1.204E+06  1.222E+06  1.238E+06  1.253E+06  1.266E+06  1.278E+06  1.289E+06  1.299E+06  1.308E+06
  16   1.308E+06  1.298E+06  1.288E+06  1.277E+06  1.265E+06  1.252E+06  1.238E+06  1.221E+06  1.203E+06  1.182E+06  1.156E+06
       1.125E+06  1.085E+06  1.027E+06  9.292E+05  7.132E+05  9.292E+05  1.027E+06  1.085E+06  1.125E+06  1.156E+06  1.182E+06
       1.203E+06  1.221E+06  1.238E+06  1.252E+06  1.265E+06  1.277E+06  1.288E+06  1.298E+06  1.308E+06
  17   1.308E+06  1.299E+06  1.289E+06  1.278E+06  1.266E+06  1.253E+06  1.238E+06  1.222E+06  1.204E+06  1.184E+06  1.159E+06
       1.130E+06  1.094E+06  1.047E+06  9.882E+05  9.292E+05  9.882E+05  1.047E+06  1.094E+06  1.130E+06  1.159E+06  1.184E+06
       1.204E+06  1.222E+06  1.238E+06  1.253E+06  1.266E+06  1.278E+06  1.289E+06  1.299E+06  1.308E+06
  18   1.309E+06  1.300E+06  1.290E+06  1.279E+06  1.267E+06  1.255E+06  1.241E+06  1.226E+06  1.208E+06  1.189E+06  1.167E+06
       1.142E+06  1.113E+06  1.080E+06  1.047E+06  1.027E+06  1.047E+06  1.080E+06  1.113E+06  1.142E+06  1.167E+06  1.189E+06
       1.208E+06  1.226E+06  1.241E+06  1.255E+06  1.267E+06  1.279E+06  1.290E+06  1.300E+06  1.309E+06
  19   1.311E+06  1.301E+06  1.292E+06  1.281E+06  1.270E+06  1.258E+06  1.245E+06  1.230E+06  1.215E+06  1.197E+06  1.178E+06
       1.157E+06  1.135E+06  1.113E+06  1.094E+06  1.085E+06  1.094E+06  1.113E+06  1.135E+06  1.157E+06  1.178E+06  1.197E+06
       1.215E+06  1.230E+06  1.245E+06  1.258E+06  1.270E+06  1.281E+06  1.292E+06  1.301E+06  1.311E+06
  20   1.313E+06  1.304E+06  1.294E+06  1.284E+06  1.274E+06  1.262E+06  1.250E+06  1.237E+06  1.223E+06  1.207E+06  1.191E+06
       1.174E+06  1.157E+06  1.142E+06  1.130E+06  1.125E+06  1.130E+06  1.142E+06  1.157E+06  1.174E+06  1.191E+06  1.207E+06
       1.223E+06  1.237E+06  1.250E+06  1.262E+06  1.274E+06  1.284E+06  1.294E+06  1.304E+06  1.313E+06
  21   1.315E+06  1.307E+06  1.298E+06  1.288E+06  1.278E+06  1.268E+06  1.256E+06  1.244E+06  1.232E+06  1.218E+06  1.205E+06
       1.191E+06  1.178E+06  1.167E+06  1.159E+06  1.156E+06  1.159E+06  1.167E+06  1.178E+06  1.191E+06  1.205E+06  1.218E+06
       1.232E+06  1.244E+06  1.256E+06  1.268E+06  1.278E+06  1.288E+06  1.298E+06  1.307E+06  1.315E+06
  22   1.318E+06  1.310E+06  1.301E+06  1.293E+06  1.283E+06  1.273E+06  1.263E+06  1.252E+06  1.241E+06  1.230E+06  1.218E+06
       1.207E+06  1.197E+06  1.189E+06  1.184E+06  1.182E+06  1.184E+06  1.189E+06  1.197E+06  1.207E+06  1.218E+06  1.230E+06
       1.241E+06  1.252E+06  1.263E+06  1.273E+06  1.283E+06  1.293E+06  1.301E+06  1.310E+06  1.318E+06
  23   1.321E+06  1.314E+06  1.306E+06  1.297E+06  1.289E+06  1.280E+06  1.270E+06  1.261E+06  1.251E+06  1.241E+06  1.232E+06
       1.223E+06  1.215E+06  1.208E+06  1.204E+06  1.203E+06  1.204E+06  1.208E+06  1.215E+06  1.223E+06  1.232E+06  1.241E+06
       1.251E+06  1.261E+06  1.270E+06  1.280E+06  1.289E+06  1.297E+06  1.306E+06  1.314E+06  1.321E+06
  24   1.325E+06  1.318E+06  1.310E+06  1.303E+06  1.294E+06  1.286E+06  1.278E+06  1.269E+06  1.261E+06  1.252E+06  1.244E+06
       1.237E+06  1.230E+06  1.226E+06  1.222E+06  1.221E+06  1.222E+06  1.226E+06  1.230E+06  1.237E+06  1.244E+06  1.252E+06
       1.261E+06  1.269E+06  1.278E+06  1.286E+06  1.294E+06  1.303E+06  1.310E+06  1.318E+06  1.325E+06
  25   1.329E+06  1.322E+06  1.315E+06  1.308E+06  1.301E+06  1.293E+06  1.285E+06  1.278E+06  1.270E+06  1.263E+06  1.256E+06
       1.250E+06  1.245E+06  1.241E+06  1.238E+06  1.238E+06  1.238E+06  1.241E+06  1.245E+06  1.250E+06  1.256E+06  1.263E+06
       1.270E+06  1.278E+06  1.285E+06  1.293E+06  1.301E+06  1.308E+06  1.315E+06  1.322E+06  1.329E+06
  26   1.333E+06  1.327E+06  1.320E+06  1.313E+06  1.307E+06  1.300E+06  1.293E+06  1.286E+06  1.280E+06  1.273E+06  1.268E+06
       1.262E+06  1.258E+06  1.255E+06  1.253E+06  1.252E+06  1.253E+06  1.255E+06  1.258E+06  1.262E+06  1.268E+06  1.273E+06
       1.280E+06  1.286E+06  1.293E+06  1.300E+06  1.307E+06  1.313E+06  1.320E+06  1.327E+06  1.333E+06
  27   1.337E+06  1.331E+06  1.325E+06  1.319E+06  1.313E+06  1.307E+06  1.301E+06  1.294E+06  1.289E+06  1.283E+06  1.278E+06
       1.274E+06  1.270E+06  1.267E+06  1.266E+06  1.265E+06  1.266E+06  1.267E+06  1.270E+06  1.274E+06  1.278E+06  1.283E+06
       1.289E+06  1.294E+06  1.301E+06  1.307E+06  1.313E+06  1.319E+06  1.325E+06  1.331E+06  1.337E+06
  28   1.342E+06  1.336E+06  1.331E+06  1.325E+06  1.319E+06  1.313E+06  1.308E+06  1.303E+06  1.297E+06  1.293E+06  1.288E+06
       1.284E+06  1.281E+06  1.279E+06  1.278E+06  1.277E+06  1.278E+06  1.279E+06  1.281E+06  1.284E+06  1.288E+06  1.293E+06
       1.297E+06  1.303E+06  1.308E+06  1.313E+06  1.319E+06  1.325E+06  1.331E+06  1.336E+06  1.342E+06
  29   1.346E+06  1.341E+06  1.336E+06  1.331E+06  1.325E+06  1.320E+06  1.315E+06  1.310E+06  1.306E+06  1.301E+06  1.298E+06
       1.294E+06  1.292E+06  1.290E+06  1.289E+06  1.288E+06  1.289E+06  1.290E+06  1.292E+06  1.294E+06  1.298E+06  1.301E+06
       1.306E+06  1.310E+06  1.315E+06  1.320E+06  1.325E+06  1.331E+06  1.336E+06  1.341E+06  1.346E+06
  30   1.351E+06  1.346E+06  1.341E+06  1.336E+06  1.331E+06  1.327E+06  1.322E+06  1.318E+06  1.314E+06  1.310E+06  1.307E+06
       1.304E+06  1.301E+06  1.300E+06  1.299E+06  1.298E+06  1.299E+06  1.300E+06  1.301E+06  1.304E+06  1.307E+06  1.310E+06
       1.314E+06  1.318E+06  1.322E+06  1.327E+06  1.331E+06  1.336E+06  1.341E+06  1.346E+06  1.351E+06
  31   1.356E+06  1.351E+06  1.346E+06  1.342E+06  1.337E+06  1.333E+06  1.329E+06  1.325E+06  1.321E+06  1.318E+06  1.315E+06
       1.313E+06  1.311E+06  1.309E+06  1.308E+06  1.308E+06  1.308E+06  1.309E+06  1.311E+06  1.313E+06  1.315E+06  1.318E+06
       1.321E+06  1.325E+06  1.329E+06  1.333E+06  1.337E+06  1.342E+06  1.346E+06  1.351E+06  1.356E+06
1
  VOLUMETRIC BUDGET FOR ENTIRE MODEL AT END OF TIME STEP  1 IN STRESS PERIOD  2
  -----------------------------------------------------------------------------

     CUMULATIVE VOLUMES      L**3       RATES FOR THIS TIME STEP      L**3/T
     ------------------                 ------------------------

           IN:                                      IN:
           ---                                      ---
             STORAGE =           0.0000               STORAGE =           0.0000
       CONSTANT HEAD =   239344608.0000         CONSTANT HEAD =       86400.0000
               WELLS =    78840000.0000                 WELLS =           0.0000

            TOTAL IN =   318184608.0000              TOTAL IN =       86400.0000

          OUT:                                     OUT:
          ----                                     ----
             STORAGE =           0.0000               STORAGE =           0.0000
       CONSTANT HEAD =    81664616.0000         CONSTANT HEAD =           0.0000
               WELLS =   236520000.0000                 WELLS =       86400.0000

           TOTAL OUT =   318184608.0000             TOTAL OUT =       86400.0000

            IN - OUT =          -8.0000              IN - OUT =           0.0000

 PERCENT DISCREPANCY =           0.00     PERCENT DISCREPANCY =           0.00






          TIME SUMMARY AT END OF TIME STEP  1 IN STRESS PERIOD  2
                    SECONDS     MINUTES      HOURS       DAYS        YEARS
                    -----------------------------------------------------------
   TIME STEP LENGTH 2.36520E+08 3.94200E+06  65700.      2737.5      7.4949    
 STRESS PERIOD TIME 2.36520E+08 3.94200E+06  65700.      2737.5      7.4949    
         TOTAL TIME 3.15360E+08 5.25600E+06  87600.      3650.0      9.9932    
1
