                                  MODFLOW-2005     
      U.S. GEOLOGICAL SURVEY MODULAR FINITE-DIFFERENCE GROUND-WATER FLOW MODEL
                            VERSION 1.5.00 4/28/2008

 LIST FILE: EXAMPLE.LST
                         UNIT    2

 OPENING EXAMPLE.DIS
 FILE TYPE:DIS   UNIT    3   STATUS:OLD    
 FORMAT:FORMATTED              ACCESS:SEQUENTIAL          

 OPENING EXAMPLE.BA6
 FILE TYPE:BAS6   UNIT    4   STATUS:OLD    
 FORMAT:FORMATTED              ACCESS:SEQUENTIAL          

 OPENING EXAMPLE.WEL
 FILE TYPE:WEL   UNIT   12   STATUS:OLD    
 FORMAT:FORMATTED              ACCESS:SEQUENTIAL          

 OPENING EXAMPLE.RIV
 FILE TYPE:RIV   UNIT   14   STATUS:OLD    
 FORMAT:FORMATTED              ACCESS:SEQUENTIAL          

 OPENING EXAMPLE.RCH
 FILE TYPE:RCH   UNIT   18   STATUS:OLD    
 FORMAT:FORMATTED              ACCESS:SEQUENTIAL          

 OPENING EXAMPLE.OC
 FILE TYPE:OC   UNIT   22   STATUS:OLD    
 FORMAT:FORMATTED              ACCESS:SEQUENTIAL          

 OPENING EXAMPLE.PCG
 FILE TYPE:PCG   UNIT   23   STATUS:OLD    
 FORMAT:FORMATTED              ACCESS:SEQUENTIAL          

 OPENING EXAMPLE.LPF
 FILE TYPE:LPF   UNIT   33   STATUS:OLD    
 FORMAT:FORMATTED              ACCESS:SEQUENTIAL          

 OPENING EXAMPLE.HED
 FILE TYPE:DATA(BINARY)   UNIT   50   STATUS:UNKNOWN
 FORMAT:BINARY                 ACCESS:SEQUENTIAL          

 OPENING EXAMPLE.BUD
 FILE TYPE:DATA(BINARY)   UNIT   53   STATUS:UNKNOWN
 FORMAT:BINARY                 ACCESS:SEQUENTIAL          

 BAS -- BASIC PACKAGE, VERSION 7, 5/2/2005 INPUT READ FROM UNIT    4

 DISCRETIZATION INPUT DATA READ FROM UNIT    3
    5 LAYERS        25 ROWS        25 COLUMNS
    3 STRESS PERIOD(S) IN SIMULATION
 MODEL TIME UNIT IS DAYS
 MODEL LENGTH UNIT IS FEET
  Confining bed flag for each layer:
   0   0   0   0   0

                     DELR =   400.000    

                     DELC =   400.000    

 TOP ELEVATION OF LAYER 1 =   400.000    

   MODEL LAYER BOTTOM EL. =   270.000     FOR LAYER   1

   MODEL LAYER BOTTOM EL. =   220.000     FOR LAYER   2

   MODEL LAYER BOTTOM EL. =   200.000     FOR LAYER   3

   MODEL LAYER BOTTOM EL. =   100.000     FOR LAYER   4

   MODEL LAYER BOTTOM EL. =   0.00000     FOR LAYER   5


 STRESS PERIOD     LENGTH       TIME STEPS     MULTIPLIER FOR DELT    SS FLAG
 ----------------------------------------------------------------------------
        1         200000.0          1                    1.000         SS
        2         10000.00         10                    1.500         TR
        3         200000.0          1                    1.000         SS

 COMBINED STEADY-STATE AND TRANSIENT SIMULATION



 
 THE FREE FORMAT OPTION HAS BEEN SELECTED

           BOUNDARY ARRAY =              1 FOR LAYER   1

           BOUNDARY ARRAY =              1 FOR LAYER   2

           BOUNDARY ARRAY =              1 FOR LAYER   3

           BOUNDARY ARRAY =              1 FOR LAYER   4

           BOUNDARY ARRAY =              1 FOR LAYER   5

 AQUIFER HEAD WILL BE SET TO 1.00000E+30 AT ALL NO-FLOW NODES (IBOUND=0).

             INITIAL HEAD =   320.000     FOR LAYER   1

             INITIAL HEAD =   320.000     FOR LAYER   2

             INITIAL HEAD =   320.000     FOR LAYER   3

             INITIAL HEAD =   320.000     FOR LAYER   4

             INITIAL HEAD =   320.000     FOR LAYER   5

 OUTPUT CONTROL IS SPECIFIED ONLY AT TIME STEPS FOR WHICH OUTPUT IS DESIRED
 COMPACT CELL-BY-CELL BUDGET FILES WILL BE WRITTEN
 AUXILIARY DATA WILL BE SAVED IN CELL-BY-CELL BUDGET FILES
 HEAD PRINT FORMAT CODE IS   0    DRAWDOWN PRINT FORMAT CODE IS   0
 HEADS WILL BE SAVED ON UNIT   50    DRAWDOWNS WILL BE SAVED ON UNIT    0

 LPF -- LAYER-PROPERTY FLOW PACKAGE, VERSION 7, 5/2/2005
         INPUT READ FROM UNIT   33
 CELL-BY-CELL FLOWS WILL BE SAVED ON UNIT   53
 HEAD AT CELLS THAT CONVERT TO DRY=  1.00000E+20
 No named parameters

   LAYER FLAGS:
 LAYER       LAYTYP        LAYAVG         CHANI        LAYVKA        LAYWET
 ---------------------------------------------------------------------------
    1             1             0     1.000E+00             0             0
    2             0             0     1.000E+00             0             0
    3             0             0     1.000E+00             0             0
    4             0             0     1.000E+00             0             0
    5             0             0     1.000E+00             0             0

   INTERPRETATION OF LAYER FLAGS:
                        INTERBLOCK     HORIZONTAL    DATA IN
         LAYER TYPE   TRANSMISSIVITY   ANISOTROPY   ARRAY VKA   WETTABILITY
 LAYER      (LAYTYP)      (LAYAVG)       (CHANI)      (LAYVKA)      (LAYWET)
 ---------------------------------------------------------------------------
    1   CONVERTIBLE      HARMONIC     1.000E+00    VERTICAL K  NON-WETTABLE
    2      CONFINED      HARMONIC     1.000E+00    VERTICAL K  NON-WETTABLE
    3      CONFINED      HARMONIC     1.000E+00    VERTICAL K  NON-WETTABLE
    4      CONFINED      HARMONIC     1.000E+00    VERTICAL K  NON-WETTABLE
    5      CONFINED      HARMONIC     1.000E+00    VERTICAL K  NON-WETTABLE

 WETTING CAPABILITY IS NOT ACTIVE IN ANY LAYER

    HYD. COND. ALONG ROWS =   50.0000     FOR LAYER   1

      VERTICAL HYD. COND. =   10.0000     FOR LAYER   1

         SPECIFIC STORAGE =  1.000000E-04 FOR LAYER   1

           SPECIFIC YIELD =  0.200000     FOR LAYER   1

    HYD. COND. ALONG ROWS =   50.0000     FOR LAYER   2

      VERTICAL HYD. COND. =   10.0000     FOR LAYER   2

         SPECIFIC STORAGE =  1.000000E-04 FOR LAYER   2

    HYD. COND. ALONG ROWS =  1.000000E-02 FOR LAYER   3

      VERTICAL HYD. COND. =  1.000000E-02 FOR LAYER   3

         SPECIFIC STORAGE =  1.000000E-04 FOR LAYER   3

    HYD. COND. ALONG ROWS =   200.000     FOR LAYER   4

      VERTICAL HYD. COND. =   20.0000     FOR LAYER   4

         SPECIFIC STORAGE =  1.000000E-04 FOR LAYER   4

    HYD. COND. ALONG ROWS =   200.000     FOR LAYER   5

      VERTICAL HYD. COND. =   20.0000     FOR LAYER   5

         SPECIFIC STORAGE =  1.000000E-04 FOR LAYER   5

 WEL -- WELL PACKAGE, VERSION 7, 5/2/2005 INPUT READ FROM UNIT   12
 No named parameters
 MAXIMUM OF      1 ACTIVE WELLS AT ONE TIME
 CELL-BY-CELL FLOWS WILL BE SAVED ON UNIT   53
 AUXILIARY WELL VARIABLE: IFACE           


     0 Well parameters

 RIV -- RIVER PACKAGE, VERSION 7, 5/2/2005 INPUT READ FROM UNIT   14
 No named parameters
 MAXIMUM OF     25 ACTIVE RIVER REACHES AT ONE TIME
 CELL-BY-CELL FLOWS WILL BE SAVED ON UNIT   53
 AUXILIARY RIVER VARIABLE: IFACE           


     0 River parameters

 RCH -- RECHARGE PACKAGE, VERSION 7, 5/2/2005 INPUT READ FROM UNIT   18
 No named parameters
 OPTION 1 -- RECHARGE TO TOP LAYER
 CELL-BY-CELL FLOWS WILL BE SAVED ON UNIT   53


     0 Recharge parameters

 PCG -- CONJUGATE-GRADIENT SOLUTION PACKAGE, VERSION 7, 5/2/2005
 MAXIMUM OF     15 CALLS OF SOLUTION ROUTINE
 MAXIMUM OF     20 INTERNAL ITERATIONS PER CALL TO SOLUTION ROUTINE
 MATRIX PRECONDITIONING TYPE :    1



                                    SOLUTION BY THE CONJUGATE-GRADIENT METHOD
                                   -------------------------------------------
                    MAXIMUM NUMBER OF CALLS TO PCG ROUTINE =       15
                        MAXIMUM ITERATIONS PER CALL TO PCG =       20
                               MATRIX PRECONDITIONING TYPE =        1
        RELAXATION FACTOR (ONLY USED WITH PRECOND. TYPE 1) =    0.10000E+01
 PARAMETER OF POLYNOMIAL PRECOND. = 2 (2) OR IS CALCULATED :        2
                         HEAD CHANGE CRITERION FOR CLOSURE =    0.10000E-03
                     RESIDUAL CHANGE CRITERION FOR CLOSURE =    0.10000E+04
            PCG HEAD AND RESIDUAL CHANGE PRINTOUT INTERVAL =        1
     PRINTING FROM SOLVER IS LIMITED(1) OR SUPPRESSED (>1) =        0
                                         DAMPING PARAMETER =    0.10000E+01
1
                            STRESS PERIOD NO.    1, LENGTH =   200000.0    
                            -----------------------------------------------

                              NUMBER OF TIME STEPS =     1

                               MULTIPLIER FOR DELT =     1.000

                            INITIAL TIME STEP SIZE =   200000.0    

      0 WELLS

 REACH NO.  LAYER   ROW   COL     STAGE      CONDUCTANCE     BOTTOM EL.         IFACE           
 -----------------------------------------------------------------------------------------------
      1      1      1     25       320.0          0.1000E+06       315.0           6.000    
      2      1      2     25       320.0          0.1000E+06       315.0           6.000    
      3      1      3     25       320.0          0.1000E+06       315.0           6.000    
      4      1      4     25       320.0          0.1000E+06       315.0           6.000    
      5      1      5     25       320.0          0.1000E+06       315.0           6.000    
      6      1      6     25       320.0          0.1000E+06       315.0           6.000    
      7      1      7     25       320.0          0.1000E+06       315.0           6.000    
      8      1      8     25       320.0          0.1000E+06       315.0           6.000    
      9      1      9     25       320.0          0.1000E+06       315.0           6.000    
     10      1     10     25       320.0          0.1000E+06       315.0           6.000    
     11      1     11     25       320.0          0.1000E+06       315.0           6.000    
     12      1     12     25       320.0          0.1000E+06       315.0           6.000    
     13      1     13     25       320.0          0.1000E+06       315.0           6.000    
     14      1     14     25       320.0          0.1000E+06       315.0           6.000    
     15      1     15     25       320.0          0.1000E+06       315.0           6.000    
     16      1     16     25       320.0          0.1000E+06       315.0           6.000    
     17      1     17     25       320.0          0.1000E+06       315.0           6.000    
     18      1     18     25       320.0          0.1000E+06       315.0           6.000    
     19      1     19     25       320.0          0.1000E+06       315.0           6.000    
     20      1     20     25       320.0          0.1000E+06       315.0           6.000    
     21      1     21     25       320.0          0.1000E+06       315.0           6.000    
     22      1     22     25       320.0          0.1000E+06       315.0           6.000    
     23      1     23     25       320.0          0.1000E+06       315.0           6.000    
     24      1     24     25       320.0          0.1000E+06       315.0           6.000    
     25      1     25     25       320.0          0.1000E+06       315.0           6.000    

     25 RIVER REACHES

                 RECHARGE =  5.000000E-03
 
 SOLVING FOR HEAD 


     5 CALLS TO PCG ROUTINE FOR TIME STEP   1 IN STRESS PERIOD    1
    72 TOTAL ITERATIONS

 MAXIMUM HEAD CHANGE FOR EACH ITERATION (1 INDICATES THE FIRST INNER ITERATION):

    HEAD CHANGE    HEAD CHANGE    HEAD CHANGE    HEAD CHANGE    HEAD CHANGE 
   LAYER,ROW,COL  LAYER,ROW,COL  LAYER,ROW,COL  LAYER,ROW,COL  LAYER,ROW,COL
 ---------------------------------------------------------------------------
  1   14.34      0   7.897      0   6.101      0   3.691      0   2.938    
   (  2, 25,  8)  (  2,  3,  7)  (  3, 25,  2)  (  1,  2, 14)  (  1,  1, 15)
  0   3.030      0  -1.860      0   1.534      0  -1.469      0 -0.6273    
   (  2,  1, 18)  (  3, 25, 24)  (  1,  3,  6)  (  3,  6, 24)  (  2,  2, 22)
  0 -0.4234      0 -0.3210      0  0.2928      0  0.2816      0 -0.1058    
   (  2,  1, 22)  (  2,  1, 23)  (  3, 25, 24)  (  3, 25, 24)  (  3, 24, 14)
  0  0.1499      0 -0.9522E-01  0  0.7683E-01  0 -0.3694E-01  0  0.2680E-01
   (  3, 25, 24)  (  2, 25,  5)  (  3,  2, 24)  (  2, 25,  4)  (  3,  1, 24)
  1  -1.055      0 -0.5603      0 -0.3904      0 -0.2965      0 -0.2740    
   (  2, 25,  8)  (  2,  4,  7)  (  3, 25,  2)  (  2,  1, 12)  (  2,  1, 14)
  0 -0.2606      0 -0.1625      0  0.8184E-01  0  0.7960E-01  0 -0.6591E-01
   (  2,  1, 17)  (  3,  1,  1)  (  3, 24, 24)  (  3,  6, 24)  (  1, 25,  6)
  0  0.2756E-01  0 -0.1554E-01  0 -0.1135E-01  0  0.1220E-01  0 -0.1205E-01
   (  2,  1, 21)  (  1,  3, 21)  (  1,  3, 22)  (  2, 25,  7)  (  3, 25,  3)
  0  0.8413E-02  0  0.7419E-02  0  0.3218E-02  0  0.2146E-02  0  0.2110E-02
   (  3, 24, 13)  (  2, 25,  4)  (  2, 18, 14)  (  3, 25,  3)  (  2, 25,  2)
  1  0.5179E-01  0  0.2400E-01  0  0.1893E-01  0  0.1352E-01  0  0.1349E-01
   (  2, 25,  8)  (  2,  3,  6)  (  3, 25,  2)  (  2,  1, 11)  (  2,  1, 11)
  0  0.1178E-01  0  0.7543E-02  0  0.3870E-02  0  0.3538E-02  0  0.2514E-02
   (  2,  1, 16)  (  3,  2,  2)  (  3, 14,  1)  (  3,  2,  1)  (  1, 25,  7)
  0  0.1483E-02  0  0.8979E-03  0  0.6176E-03  0  0.6385E-03  0 -0.5502E-03
   (  1,  4, 19)  (  2,  4, 21)  (  2,  3, 22)  (  3, 25,  4)  (  3, 24, 12)
  0  0.5496E-03  0 -0.4550E-03  0  0.1641E-03  0 -0.1082E-03  0 -0.9576E-04
   (  2, 22,  2)  (  2, 25,  4)  (  3,  1, 20)  (  3, 25,  3)  (  2, 25,  2)
  1 -0.1891E-02  0 -0.7616E-03  0 -0.6837E-03  0 -0.4250E-03  0 -0.4354E-03
   (  2, 25,  7)  (  2, 25,  5)  (  2,  2,  4)  (  2,  1,  8)  (  2,  1,  9)
  0 -0.3574E-03  0 -0.3072E-03  0 -0.1882E-03  0 -0.1400E-03  0 -0.1052E-03
   (  2, 20,  1)  (  3, 15,  1)  (  1, 25, 10)  (  3,  2,  1)  (  3, 22,  1)
  0 -0.6442E-04  1  0.7684E-04
   (  2,  5, 20)  (  2, 25,  9)

 MAXIMUM RESIDUAL FOR EACH ITERATION (1 INDICATES THE FIRST INNER ITERATION):

    RESIDUAL       RESIDUAL       RESIDUAL       RESIDUAL       RESIDUAL    
   LAYER,ROW,COL  LAYER,ROW,COL  LAYER,ROW,COL  LAYER,ROW,COL  LAYER,ROW,COL
 ---------------------------------------------------------------------------
  1   9220.      0  0.1075E+05  0  0.1127E+05  0  0.1207E+05  0  0.1039E+05
   (  5, 25, 23)  (  2, 25, 24)  (  2, 25, 24)  (  2, 25, 24)  (  2, 25, 24)
  0  -8528.      0  -8289.      0   8399.      0   8044.      0   6696.    
   (  1,  6, 25)  (  1,  4, 25)  (  2,  3, 24)  (  2,  2, 24)  (  2,  2, 24)
  0   4693.      0   3315.      0   1910.      0   1182.      0   1030.    
   (  2,  2, 24)  (  2,  1, 24)  (  2,  1, 24)  (  2,  3, 22)  (  2,  3, 22)
  0   771.5      0   519.6      0   364.9      0  -198.4      0  -164.9    
   (  2,  2, 22)  (  2,  2, 22)  (  2,  2, 23)  (  1,  2, 25)  (  1,  1, 25)
  1  -636.7      0  -715.7      0  -547.6      0  -513.6      0  -480.9    
   (  5, 25, 23)  (  2, 25, 21)  (  2, 25, 22)  (  2, 25, 21)  (  5, 25, 15)
  0  -503.1      0  -545.8      0  -495.0      0  -415.2      0  -325.8    
   (  2,  3, 20)  (  2,  2, 20)  (  2,  2, 21)  (  2,  1, 20)  (  2,  1, 21)
  0   225.9      0   152.0      0  -105.7      0  -86.03      0  -77.62    
   (  1,  2, 20)  (  1,  2, 21)  (  2,  3, 21)  (  2,  3, 21)  (  2,  3, 22)
  0  -55.89      0  -36.37      0  -20.09      0  -13.05      0  -10.08    
   (  2,  2, 21)  (  2,  2, 22)  (  2,  2, 22)  (  5, 25, 22)  (  5, 25, 22)
  1   28.32      0   33.71      0   23.26      0   23.85      0   26.77    
   (  5, 25, 23)  (  2, 25, 20)  (  2, 25, 19)  (  2, 25, 19)  (  5, 25, 15)
  0   23.31      0   23.26      0   20.10      0   17.31      0  -13.64    
   (  2,  2, 17)  (  2,  2, 19)  (  2,  1, 17)  (  2,  1, 18)  (  1,  2, 18)
  0  -9.661      0  -5.976      0   4.278      0   3.336      0   2.931    
   (  1,  2, 19)  (  1,  2, 20)  (  2, 25, 15)  (  2,  3, 21)  (  2,  3, 22)
  0   2.228      0   1.463      0  0.7154      0  0.6363      0  0.4781    
   (  2,  3, 22)  (  2,  3, 23)  (  2,  3, 23)  (  5, 25, 20)  (  5, 25, 21)
  1  -1.044      0  -1.213      0 -0.8152      0 -0.8225      0 -0.9798    
   (  5, 25, 23)  (  2, 25, 18)  (  2, 25, 17)  (  2, 25, 17)  (  5, 25, 14)
  0 -0.7911      0 -0.7385      0  0.6841      0  0.5966      0  0.4506    
   (  2,  2, 15)  (  2,  2, 16)  (  1,  2, 14)  (  1,  2, 15)  (  1,  2, 16)
  0  0.2994      1  0.2921    
   (  1,  2, 17)  (  1,  2, 16)



 OUTPUT CONTROL FOR STRESS PERIOD    1   TIME STEP   1
    PRINT BUDGET
    SAVE BUDGET
    PRINT HEAD FOR ALL LAYERS
    SAVE HEAD FOR ALL LAYERS
 UBDSV2 SAVING "   CONSTANT HEAD" ON UNIT  53 AT TIME STEP  1, STRESS PERIOD   1
 UBDSV1 SAVING "FLOW RIGHT FACE " ON UNIT  53 AT TIME STEP  1, STRESS PERIOD   1
 UBDSV1 SAVING "FLOW FRONT FACE " ON UNIT  53 AT TIME STEP  1, STRESS PERIOD   1
 UBDSV1 SAVING "FLOW LOWER FACE " ON UNIT  53 AT TIME STEP  1, STRESS PERIOD   1
 UBDSV4 SAVING "           WELLS" ON UNIT  53 AT TIME STEP  1, STRESS PERIOD   1
 UBDSV4 SAVING "   RIVER LEAKAGE" ON UNIT  53 AT TIME STEP  1, STRESS PERIOD   1
 UBDSV3 SAVING "        RECHARGE" ON UNIT  53 AT TIME STEP  1, STRESS PERIOD   1
1
              HEAD IN LAYER   1 AT END OF TIME STEP   1 IN STRESS PERIOD    1
  ---------------------------------------------------------------------------

            1           2           3           4           5           6           7           8           9          10
           11          12          13          14          15          16          17          18          19          20
           21          22          23          24          25
 ........................................................................................................................
   1    346.8       346.7       346.6       346.5       346.3       346.0       345.7       345.4       344.9       344.4    
        343.9       343.2       342.5       341.6       340.7       339.6       338.4       337.0       335.5       333.7    
        331.7       329.5       326.8       323.8       320.2    
   2    346.8       346.7       346.6       346.5       346.3       346.0       345.7       345.4       344.9       344.4    
        343.9       343.2       342.5       341.6       340.7       339.6       338.4       337.0       335.5       333.7    
        331.7       329.5       326.8       323.8       320.2    
   3    346.8       346.7       346.6       346.5       346.3       346.0       345.7       345.4       344.9       344.4    
        343.9       343.2       342.5       341.6       340.7       339.6       338.4       337.0       335.5       333.7    
        331.7       329.5       326.8       323.8       320.2    
   4    346.8       346.7       346.6       346.5       346.3       346.0       345.7       345.4       344.9       344.4    
        343.9       343.2       342.5       341.6       340.7       339.6       338.4       337.0       335.5       333.7    
        331.7       329.5       326.8       323.8       320.2    
   5    346.8       346.7       346.6       346.5       346.3       346.0       345.7       345.4       344.9       344.4    
        343.9       343.2       342.5       341.6       340.7       339.6       338.4       337.0       335.5       333.7    
        331.7       329.5       326.8       323.8       320.2    
   6    346.8       346.7       346.6       346.5       346.3       346.0       345.7       345.4       344.9       344.4    
        343.9       343.2       342.5       341.6       340.7       339.6       338.4       337.0       335.5       333.7    
        331.7       329.5       326.8       323.8       320.2    
   7    346.8       346.7       346.6       346.5       346.3       346.0       345.7       345.4       344.9       344.4    
        343.9       343.2       342.5       341.6       340.7       339.6       338.4       337.0       335.5       333.7    
        331.7       329.5       326.8       323.8       320.2    
   8    346.8       346.7       346.6       346.5       346.3       346.0       345.7       345.4       344.9       344.4    
        343.9       343.2       342.5       341.6       340.7       339.6       338.4       337.0       335.5       333.7    
        331.7       329.5       326.8       323.8       320.2    
   9    346.8       346.7       346.6       346.5       346.3       346.0       345.7       345.4       344.9       344.4    
        343.9       343.2       342.5       341.6       340.7       339.6       338.4       337.0       335.5       333.7    
        331.7       329.5       326.8       323.8       320.2    
  10    346.8       346.7       346.6       346.5       346.3       346.0       345.7       345.4       344.9       344.4    
        343.9       343.2       342.5       341.6       340.7       339.6       338.4       337.0       335.5       333.7    
        331.7       329.5       326.8       323.8       320.2    
  11    346.8       346.7       346.6       346.5       346.3       346.0       345.7       345.4       344.9       344.4    
        343.9       343.2       342.5       341.6       340.7       339.6       338.4       337.0       335.5       333.7    
        331.7       329.5       326.8       323.8       320.2    
  12    346.8       346.7       346.6       346.5       346.3       346.0       345.7       345.4       344.9       344.4    
        343.9       343.2       342.5       341.6       340.7       339.6       338.4       337.0       335.5       333.7    
        331.7       329.5       326.8       323.8       320.2    
  13    346.8       346.7       346.6       346.5       346.3       346.0       345.7       345.4       344.9       344.4    
        343.9       343.2       342.5       341.6       340.7       339.6       338.4       337.0       335.5       333.7    
        331.7       329.5       326.8       323.8       320.2    
  14    346.8       346.7       346.6       346.5       346.3       346.0       345.7       345.4       344.9       344.4    
        343.9       343.2       342.5       341.6       340.7       339.6       338.4       337.0       335.5       333.7    
        331.7       329.5       326.8       323.8       320.2    
  15    346.8       346.7       346.6       346.5       346.3       346.0       345.7       345.4       344.9       344.4    
        343.9       343.2       342.5       341.6       340.7       339.6       338.4       337.0       335.5       333.7    
        331.7       329.5       326.8       323.8       320.2    
  16    346.8       346.7       346.6       346.5       346.3       346.0       345.7       345.4       344.9       344.4    
        343.9       343.2       342.5       341.6       340.7       339.6       338.4       337.0       335.5       333.7    
        331.7       329.5       326.8       323.8       320.2    
  17    346.8       346.7       346.6       346.5       346.3       346.0       345.7       345.4       344.9       344.4    
        343.9       343.2       342.5       341.6       340.7       339.6       338.4       337.0       335.5       333.7    
        331.7       329.5       326.8       323.8       320.2    
  18    346.8       346.7       346.6       346.5       346.3       346.0       345.7       345.4       344.9       344.4    
        343.9       343.2       342.5       341.6       340.7       339.6       338.4       337.0       335.5       333.7    
        331.7       329.5       326.8       323.8       320.2    
  19    346.8       346.7       346.6       346.5       346.3       346.0       345.7       345.4       344.9       344.4    
        343.9       343.2       342.5       341.6       340.7       339.6       338.4       337.0       335.5       333.7    
        331.7       329.5       326.8       323.8       320.2    
  20    346.8       346.7       346.6       346.5       346.3       346.0       345.7       345.4       344.9       344.4    
        343.9       343.2       342.5       341.6       340.7       339.6       338.4       337.0       335.5       333.7    
        331.7       329.5       326.8       323.8       320.2    
  21    346.8       346.7       346.6       346.5       346.3       346.0       345.7       345.4       344.9       344.4    
        343.9       343.2       342.5       341.6       340.7       339.6       338.4       337.0       335.5       333.7    
        331.7       329.5       326.8       323.8       320.2    
  22    346.8       346.7       346.6       346.5       346.3       346.0       345.7       345.4       344.9       344.4    
        343.9       343.2       342.5       341.6       340.7       339.6       338.4       337.0       335.5       333.7    
        331.7       329.5       326.8       323.8       320.2    
  23    346.8       346.7       346.6       346.5       346.3       346.0       345.7       345.4       344.9       344.4    
        343.9       343.2       342.5       341.6       340.7       339.6       338.4       337.0       335.5       333.7    
        331.7       329.5       326.8       323.8       320.2    
  24    346.8       346.7       346.6       346.5       346.3       346.0       345.7       345.4       344.9       344.4    
        343.9       343.2       342.5       341.6       340.7       339.6       338.4       337.0       335.5       333.7    
        331.7       329.5       326.8       323.8       320.2    
  25    346.8       346.7       346.6       346.5       346.3       346.0       345.7       345.4       344.9       344.4    
        343.9       343.2       342.5       341.6       340.7       339.6       338.4       337.0       335.5       333.7    
        331.7       329.5       326.8       323.8       320.2    
1
              HEAD IN LAYER   2 AT END OF TIME STEP   1 IN STRESS PERIOD    1
  ---------------------------------------------------------------------------

            1           2           3           4           5           6           7           8           9          10
           11          12          13          14          15          16          17          18          19          20
           21          22          23          24          25
 ........................................................................................................................
   1    346.7       346.7       346.6       346.4       346.3       346.0       345.7       345.3       344.9       344.4    
        343.8       343.2       342.5       341.6       340.7       339.6       338.4       337.0       335.5       333.7    
        331.7       329.5       326.8       323.8       320.5    
   2    346.7       346.7       346.6       346.4       346.3       346.0       345.7       345.3       344.9       344.4    
        343.8       343.2       342.5       341.6       340.7       339.6       338.4       337.0       335.5       333.7    
        331.7       329.5       326.8       323.8       320.5    
   3    346.7       346.7       346.6       346.4       346.3       346.0       345.7       345.3       344.9       344.4    
        343.8       343.2       342.5       341.6       340.7       339.6       338.4       337.0       335.5       333.7    
        331.7       329.5       326.8       323.8       320.5    
   4    346.7       346.7       346.6       346.4       346.3       346.0       345.7       345.3       344.9       344.4    
        343.8       343.2       342.5       341.6       340.7       339.6       338.4       337.0       335.5       333.7    
        331.7       329.5       326.8       323.8       320.5    
   5    346.7       346.7       346.6       346.4       346.3       346.0       345.7       345.3       344.9       344.4    
        343.8       343.2       342.5       341.6       340.7       339.6       338.4       337.0       335.5       333.7    
        331.7       329.5       326.8       323.8       320.5    
   6    346.7       346.7       346.6       346.4       346.3       346.0       345.7       345.3       344.9       344.4    
        343.8       343.2       342.5       341.6       340.7       339.6       338.4       337.0       335.5       333.7    
        331.7       329.5       326.8       323.8       320.5    
   7    346.7       346.7       346.6       346.4       346.3       346.0       345.7       345.3       344.9       344.4    
        343.8       343.2       342.5       341.6       340.7       339.6       338.4       337.0       335.5       333.7    
        331.7       329.5       326.8       323.8       320.5    
   8    346.7       346.7       346.6       346.4       346.3       346.0       345.7       345.3       344.9       344.4    
        343.8       343.2       342.5       341.6       340.7       339.6       338.4       337.0       335.5       333.7    
        331.7       329.5       326.8       323.8       320.5    
   9    346.7       346.7       346.6       346.4       346.3       346.0       345.7       345.3       344.9       344.4    
        343.8       343.2       342.5       341.6       340.7       339.6       338.4       337.0       335.5       333.7    
        331.7       329.5       326.8       323.8       320.5    
  10    346.7       346.7       346.6       346.4       346.3       346.0       345.7       345.3       344.9       344.4    
        343.8       343.2       342.5       341.6       340.7       339.6       338.4       337.0       335.5       333.7    
        331.7       329.5       326.8       323.8       320.5    
  11    346.7       346.7       346.6       346.4       346.3       346.0       345.7       345.3       344.9       344.4    
        343.8       343.2       342.5       341.6       340.7       339.6       338.4       337.0       335.5       333.7    
        331.7       329.5       326.8       323.8       320.5    
  12    346.7       346.7       346.6       346.4       346.3       346.0       345.7       345.3       344.9       344.4    
        343.8       343.2       342.5       341.6       340.7       339.6       338.4       337.0       335.5       333.7    
        331.7       329.5       326.8       323.8       320.5    
  13    346.7       346.7       346.6       346.4       346.3       346.0       345.7       345.3       344.9       344.4    
        343.8       343.2       342.5       341.6       340.7       339.6       338.4       337.0       335.5       333.7    
        331.7       329.5       326.8       323.8       320.5    
  14    346.7       346.7       346.6       346.4       346.3       346.0       345.7       345.3       344.9       344.4    
        343.8       343.2       342.5       341.6       340.7       339.6       338.4       337.0       335.5       333.7    
        331.7       329.5       326.8       323.8       320.5    
  15    346.7       346.7       346.6       346.4       346.3       346.0       345.7       345.3       344.9       344.4    
        343.8       343.2       342.5       341.6       340.7       339.6       338.4       337.0       335.5       333.7    
        331.7       329.5       326.8       323.8       320.5    
  16    346.7       346.7       346.6       346.4       346.3       346.0       345.7       345.3       344.9       344.4    
        343.8       343.2       342.5       341.6       340.7       339.6       338.4       337.0       335.5       333.7    
        331.7       329.5       326.8       323.8       320.5    
  17    346.7       346.7       346.6       346.4       346.3       346.0       345.7       345.3       344.9       344.4    
        343.8       343.2       342.5       341.6       340.7       339.6       338.4       337.0       335.5       333.7    
        331.7       329.5       326.8       323.8       320.5    
  18    346.7       346.7       346.6       346.4       346.3       346.0       345.7       345.3       344.9       344.4    
        343.8       343.2       342.5       341.6       340.7       339.6       338.4       337.0       335.5       333.7    
        331.7       329.5       326.8       323.8       320.5    
  19    346.7       346.7       346.6       346.4       346.3       346.0       345.7       345.3       344.9       344.4    
        343.8       343.2       342.5       341.6       340.7       339.6       338.4       337.0       335.5       333.7    
        331.7       329.5       326.8       323.8       320.5    
  20    346.7       346.7       346.6       346.4       346.3       346.0       345.7       345.3       344.9       344.4    
        343.8       343.2       342.5       341.6       340.7       339.6       338.4       337.0       335.5       333.7    
        331.7       329.5       326.8       323.8       320.5    
  21    346.7       346.7       346.6       346.4       346.3       346.0       345.7       345.3       344.9       344.4    
        343.8       343.2       342.5       341.6       340.7       339.6       338.4       337.0       335.5       333.7    
        331.7       329.5       326.8       323.8       320.5    
  22    346.7       346.7       346.6       346.4       346.3       346.0       345.7       345.3       344.9       344.4    
        343.8       343.2       342.5       341.6       340.7       339.6       338.4       337.0       335.5       333.7    
        331.7       329.5       326.8       323.8       320.5    
  23    346.7       346.7       346.6       346.4       346.3       346.0       345.7       345.3       344.9       344.4    
        343.8       343.2       342.5       341.6       340.7       339.6       338.4       337.0       335.5       333.7    
        331.7       329.5       326.8       323.8       320.5    
  24    346.7       346.7       346.6       346.4       346.3       346.0       345.7       345.3       344.9       344.4    
        343.8       343.2       342.5       341.6       340.7       339.6       338.4       337.0       335.5       333.7    
        331.7       329.5       326.8       323.8       320.5    
  25    346.7       346.7       346.6       346.4       346.3       346.0       345.7       345.3       344.9       344.4    
        343.8       343.2       342.5       341.6       340.7       339.6       338.4       337.0       335.5       333.7    
        331.7       329.5       326.8       323.8       320.5    
1
              HEAD IN LAYER   3 AT END OF TIME STEP   1 IN STRESS PERIOD    1
  ---------------------------------------------------------------------------

            1           2           3           4           5           6           7           8           9          10
           11          12          13          14          15          16          17          18          19          20
           21          22          23          24          25
 ........................................................................................................................
   1    343.6       343.6       343.5       343.4       343.3       343.2       343.0       342.8       342.5       342.2    
        341.9       341.5       341.0       340.5       340.0       339.4       338.7       338.0       337.1       336.2    
        335.1       333.9       332.6       331.1       329.4    
   2    343.6       343.6       343.5       343.4       343.3       343.2       343.0       342.8       342.5       342.2    
        341.9       341.5       341.0       340.5       340.0       339.4       338.7       338.0       337.1       336.2    
        335.1       333.9       332.6       331.1       329.4    
   3    343.6       343.6       343.5       343.4       343.3       343.2       343.0       342.8       342.5       342.2    
        341.9       341.5       341.0       340.5       340.0       339.4       338.7       338.0       337.1       336.2    
        335.1       333.9       332.6       331.1       329.4    
   4    343.6       343.6       343.5       343.4       343.3       343.2       343.0       342.8       342.5       342.2    
        341.9       341.5       341.0       340.5       340.0       339.4       338.7       338.0       337.1       336.2    
        335.1       333.9       332.6       331.1       329.4    
   5    343.6       343.6       343.5       343.4       343.3       343.2       343.0       342.8       342.5       342.2    
        341.9       341.5       341.0       340.5       340.0       339.4       338.7       338.0       337.1       336.2    
        335.1       333.9       332.6       331.1       329.4    
   6    343.6       343.6       343.5       343.4       343.3       343.2       343.0       342.8       342.5       342.2    
        341.9       341.5       341.0       340.5       340.0       339.4       338.7       338.0       337.1       336.2    
        335.1       333.9       332.6       331.1       329.4    
   7    343.6       343.6       343.5       343.4       343.3       343.2       343.0       342.8       342.5       342.2    
        341.9       341.5       341.0       340.5       340.0       339.4       338.7       338.0       337.1       336.2    
        335.1       333.9       332.6       331.1       329.4    
   8    343.6       343.6       343.5       343.4       343.3       343.2       343.0       342.8       342.5       342.2    
        341.9       341.5       341.0       340.5       340.0       339.4       338.7       338.0       337.1       336.2    
        335.1       333.9       332.6       331.1       329.4    
   9    343.6       343.6       343.5       343.4       343.3       343.2       343.0       342.8       342.5       342.2    
        341.9       341.5       341.0       340.5       340.0       339.4       338.7       338.0       337.1       336.2    
        335.1       333.9       332.6       331.1       329.4    
  10    343.6       343.6       343.5       343.4       343.3       343.2       343.0       342.8       342.5       342.2    
        341.9       341.5       341.0       340.5       340.0       339.4       338.7       338.0       337.1       336.2    
        335.1       333.9       332.6       331.1       329.4    
  11    343.6       343.6       343.5       343.4       343.3       343.2       343.0       342.8       342.5       342.2    
        341.9       341.5       341.0       340.5       340.0       339.4       338.7       338.0       337.1       336.2    
        335.1       333.9       332.6       331.1       329.4    
  12    343.6       343.6       343.5       343.4       343.3       343.2       343.0       342.8       342.5       342.2    
        341.9       341.5       341.0       340.5       340.0       339.4       338.7       338.0       337.1       336.2    
        335.1       333.9       332.6       331.1       329.4    
  13    343.6       343.6       343.5       343.4       343.3       343.2       343.0       342.8       342.5       342.2    
        341.9       341.5       341.0       340.5       340.0       339.4       338.7       338.0       337.1       336.2    
        335.1       333.9       332.6       331.1       329.4    
  14    343.6       343.6       343.5       343.4       343.3       343.2       343.0       342.8       342.5       342.2    
        341.9       341.5       341.0       340.5       340.0       339.4       338.7       338.0       337.1       336.2    
        335.1       333.9       332.6       331.1       329.4    
  15    343.6       343.6       343.5       343.4       343.3       343.2       343.0       342.8       342.5       342.2    
        341.9       341.5       341.0       340.5       340.0       339.4       338.7       338.0       337.1       336.2    
        335.1       333.9       332.6       331.1       329.4    
  16    343.6       343.6       343.5       343.4       343.3       343.2       343.0       342.8       342.5       342.2    
        341.9       341.5       341.0       340.5       340.0       339.4       338.7       338.0       337.1       336.2    
        335.1       333.9       332.6       331.1       329.4    
  17    343.6       343.6       343.5       343.4       343.3       343.2       343.0       342.8       342.5       342.2    
        341.9       341.5       341.0       340.5       340.0       339.4       338.7       338.0       337.1       336.2    
        335.1       333.9       332.6       331.1       329.4    
  18    343.6       343.6       343.5       343.4       343.3       343.2       343.0       342.8       342.5       342.2    
        341.9       341.5       341.0       340.5       340.0       339.4       338.7       338.0       337.1       336.2    
        335.1       333.9       332.6       331.1       329.4    
  19    343.6       343.6       343.5       343.4       343.3       343.2       343.0       342.8       342.5       342.2    
        341.9       341.5       341.0       340.5       340.0       339.4       338.7       338.0       337.1       336.2    
        335.1       333.9       332.6       331.1       329.4    
  20    343.6       343.6       343.5       343.4       343.3       343.2       343.0       342.8       342.5       342.2    
        341.9       341.5       341.0       340.5       340.0       339.4       338.7       338.0       337.1       336.2    
        335.1       333.9       332.6       331.1       329.4    
  21    343.6       343.6       343.5       343.4       343.3       343.2       343.0       342.8       342.5       342.2    
        341.9       341.5       341.0       340.5       340.0       339.4       338.7       338.0       337.1       336.2    
        335.1       333.9       332.6       331.1       329.4    
  22    343.6       343.6       343.5       343.4       343.3       343.2       343.0       342.8       342.5       342.2    
        341.9       341.5       341.0       340.5       340.0       339.4       338.7       338.0       337.1       336.2    
        335.1       333.9       332.6       331.1       329.4    
  23    343.6       343.6       343.5       343.4       343.3       343.2       343.0       342.8       342.5       342.2    
        341.9       341.5       341.0       340.5       340.0       339.4       338.7       338.0       337.1       336.2    
        335.1       333.9       332.6       331.1       329.4    
  24    343.6       343.6       343.5       343.4       343.3       343.2       343.0       342.8       342.5       342.2    
        341.9       341.5       341.0       340.5       340.0       339.4       338.7       338.0       337.1       336.2    
        335.1       333.9       332.6       331.1       329.4    
  25    343.6       343.6       343.5       343.4       343.3       343.2       343.0       342.8       342.5       342.2    
        341.9       341.5       341.0       340.5       340.0       339.4       338.7       338.0       337.1       336.2    
        335.1       333.9       332.6       331.1       329.4    
1
              HEAD IN LAYER   4 AT END OF TIME STEP   1 IN STRESS PERIOD    1
  ---------------------------------------------------------------------------

            1           2           3           4           5           6           7           8           9          10
           11          12          13          14          15          16          17          18          19          20
           21          22          23          24          25
 ........................................................................................................................
   1    340.5       340.5       340.5       340.4       340.4       340.3       340.2       340.2       340.1       340.0    
        339.9       339.7       339.6       339.5       339.3       339.2       339.1       338.9       338.8       338.7    
        338.5       338.4       338.3       338.3       338.2    
   2    340.5       340.5       340.5       340.4       340.4       340.3       340.2       340.2       340.1       340.0    
        339.9       339.7       339.6       339.5       339.3       339.2       339.1       338.9       338.8       338.7    
        338.5       338.4       338.3       338.3       338.2    
   3    340.5       340.5       340.5       340.4       340.4       340.3       340.2       340.2       340.1       340.0    
        339.9       339.7       339.6       339.5       339.3       339.2       339.1       338.9       338.8       338.7    
        338.5       338.4       338.3       338.3       338.2    
   4    340.5       340.5       340.5       340.4       340.4       340.3       340.2       340.2       340.1       340.0    
        339.9       339.7       339.6       339.5       339.3       339.2       339.1       338.9       338.8       338.7    
        338.5       338.4       338.3       338.3       338.2    
   5    340.5       340.5       340.5       340.4       340.4       340.3       340.2       340.2       340.1       340.0    
        339.9       339.7       339.6       339.5       339.3       339.2       339.1       338.9       338.8       338.7    
        338.5       338.4       338.3       338.3       338.2    
   6    340.5       340.5       340.5       340.4       340.4       340.3       340.2       340.2       340.1       340.0    
        339.9       339.7       339.6       339.5       339.3       339.2       339.1       338.9       338.8       338.7    
        338.5       338.4       338.3       338.3       338.2    
   7    340.5       340.5       340.5       340.4       340.4       340.3       340.2       340.2       340.1       340.0    
        339.9       339.7       339.6       339.5       339.3       339.2       339.1       338.9       338.8       338.7    
        338.5       338.4       338.3       338.3       338.2    
   8    340.5       340.5       340.5       340.4       340.4       340.3       340.2       340.2       340.1       340.0    
        339.9       339.7       339.6       339.5       339.3       339.2       339.1       338.9       338.8       338.7    
        338.5       338.4       338.3       338.3       338.2    
   9    340.5       340.5       340.5       340.4       340.4       340.3       340.2       340.2       340.1       340.0    
        339.9       339.7       339.6       339.5       339.3       339.2       339.1       338.9       338.8       338.7    
        338.5       338.4       338.3       338.3       338.2    
  10    340.5       340.5       340.5       340.4       340.4       340.3       340.2       340.2       340.1       340.0    
        339.9       339.7       339.6       339.5       339.3       339.2       339.1       338.9       338.8       338.7    
        338.5       338.4       338.3       338.3       338.2    
  11    340.5       340.5       340.5       340.4       340.4       340.3       340.2       340.2       340.1       340.0    
        339.9       339.7       339.6       339.5       339.3       339.2       339.1       338.9       338.8       338.7    
        338.5       338.4       338.3       338.3       338.2    
  12    340.5       340.5       340.5       340.4       340.4       340.3       340.2       340.2       340.1       340.0    
        339.9       339.7       339.6       339.5       339.3       339.2       339.1       338.9       338.8       338.7    
        338.5       338.4       338.3       338.3       338.2    
  13    340.5       340.5       340.5       340.4       340.4       340.3       340.2       340.2       340.1       340.0    
        339.9       339.7       339.6       339.5       339.3       339.2       339.1       338.9       338.8       338.7    
        338.5       338.4       338.3       338.3       338.2    
  14    340.5       340.5       340.5       340.4       340.4       340.3       340.2       340.2       340.1       340.0    
        339.9       339.7       339.6       339.5       339.3       339.2       339.1       338.9       338.8       338.7    
        338.5       338.4       338.3       338.3       338.2    
  15    340.5       340.5       340.5       340.4       340.4       340.3       340.2       340.2       340.1       340.0    
        339.9       339.7       339.6       339.5       339.3       339.2       339.1       338.9       338.8       338.7    
        338.5       338.4       338.3       338.3       338.2    
  16    340.5       340.5       340.5       340.4       340.4       340.3       340.2       340.2       340.1       340.0    
        339.9       339.7       339.6       339.5       339.3       339.2       339.1       338.9       338.8       338.7    
        338.5       338.4       338.3       338.3       338.2    
  17    340.5       340.5       340.5       340.4       340.4       340.3       340.2       340.2       340.1       340.0    
        339.9       339.7       339.6       339.5       339.3       339.2       339.1       338.9       338.8       338.7    
        338.5       338.4       338.3       338.3       338.2    
  18    340.5       340.5       340.5       340.4       340.4       340.3       340.2       340.2       340.1       340.0    
        339.9       339.7       339.6       339.5       339.3       339.2       339.1       338.9       338.8       338.7    
        338.5       338.4       338.3       338.3       338.2    
  19    340.5       340.5       340.5       340.4       340.4       340.3       340.2       340.2       340.1       340.0    
        339.9       339.7       339.6       339.5       339.3       339.2       339.1       338.9       338.8       338.7    
        338.5       338.4       338.3       338.3       338.2    
  20    340.5       340.5       340.5       340.4       340.4       340.3       340.2       340.2       340.1       340.0    
        339.9       339.7       339.6       339.5       339.3       339.2       339.1       338.9       338.8       338.7    
        338.5       338.4       338.3       338.3       338.2    
  21    340.5       340.5       340.5       340.4       340.4       340.3       340.2       340.2       340.1       340.0    
        339.9       339.7       339.6       339.5       339.3       339.2       339.1       338.9       338.8       338.7    
        338.5       338.4       338.3       338.3       338.2    
  22    340.5       340.5       340.5       340.4       340.4       340.3       340.2       340.2       340.1       340.0    
        339.9       339.7       339.6       339.5       339.3       339.2       339.1       338.9       338.8       338.7    
        338.5       338.4       338.3       338.3       338.2    
  23    340.5       340.5       340.5       340.4       340.4       340.3       340.2       340.2       340.1       340.0    
        339.9       339.7       339.6       339.5       339.3       339.2       339.1       338.9       338.8       338.7    
        338.5       338.4       338.3       338.3       338.2    
  24    340.5       340.5       340.5       340.4       340.4       340.3       340.2       340.2       340.1       340.0    
        339.9       339.7       339.6       339.5       339.3       339.2       339.1       338.9       338.8       338.7    
        338.5       338.4       338.3       338.3       338.2    
  25    340.5       340.5       340.5       340.4       340.4       340.3       340.2       340.2       340.1       340.0    
        339.9       339.7       339.6       339.5       339.3       339.2       339.1       338.9       338.8       338.7    
        338.5       338.4       338.3       338.3       338.2    
1
              HEAD IN LAYER   5 AT END OF TIME STEP   1 IN STRESS PERIOD    1
  ---------------------------------------------------------------------------

            1           2           3           4           5           6           7           8           9          10
           11          12          13          14          15          16          17          18          19          20
           21          22          23          24          25
 ........................................................................................................................
   1    340.5       340.5       340.5       340.4       340.4       340.3       340.2       340.2       340.1       340.0    
        339.9       339.7       339.6       339.5       339.3       339.2       339.1       338.9       338.8       338.7    
        338.5       338.4       338.4       338.3       338.3    
   2    340.5       340.5       340.5       340.4       340.4       340.3       340.2       340.2       340.1       340.0    
        339.9       339.7       339.6       339.5       339.3       339.2       339.1       338.9       338.8       338.7    
        338.5       338.4       338.4       338.3       338.3    
   3    340.5       340.5       340.5       340.4       340.4       340.3       340.2       340.2       340.1       340.0    
        339.9       339.7       339.6       339.5       339.3       339.2       339.1       338.9       338.8       338.7    
        338.5       338.4       338.4       338.3       338.3    
   4    340.5       340.5       340.5       340.4       340.4       340.3       340.2       340.2       340.1       340.0    
        339.9       339.7       339.6       339.5       339.3       339.2       339.1       338.9       338.8       338.7    
        338.5       338.4       338.4       338.3       338.3    
   5    340.5       340.5       340.5       340.4       340.4       340.3       340.2       340.2       340.1       340.0    
        339.9       339.7       339.6       339.5       339.3       339.2       339.1       338.9       338.8       338.7    
        338.5       338.4       338.4       338.3       338.3    
   6    340.5       340.5       340.5       340.4       340.4       340.3       340.2       340.2       340.1       340.0    
        339.9       339.7       339.6       339.5       339.3       339.2       339.1       338.9       338.8       338.7    
        338.5       338.4       338.4       338.3       338.3    
   7    340.5       340.5       340.5       340.4       340.4       340.3       340.2       340.2       340.1       340.0    
        339.9       339.7       339.6       339.5       339.3       339.2       339.1       338.9       338.8       338.7    
        338.5       338.4       338.4       338.3       338.3    
   8    340.5       340.5       340.5       340.4       340.4       340.3       340.2       340.2       340.1       340.0    
        339.9       339.7       339.6       339.5       339.3       339.2       339.1       338.9       338.8       338.7    
        338.5       338.4       338.4       338.3       338.3    
   9    340.5       340.5       340.5       340.4       340.4       340.3       340.2       340.2       340.1       340.0    
        339.9       339.7       339.6       339.5       339.3       339.2       339.1       338.9       338.8       338.7    
        338.5       338.4       338.4       338.3       338.3    
  10    340.5       340.5       340.5       340.4       340.4       340.3       340.2       340.2       340.1       340.0    
        339.9       339.7       339.6       339.5       339.3       339.2       339.1       338.9       338.8       338.7    
        338.5       338.4       338.4       338.3       338.3    
  11    340.5       340.5       340.5       340.4       340.4       340.3       340.2       340.2       340.1       340.0    
        339.9       339.7       339.6       339.5       339.3       339.2       339.1       338.9       338.8       338.7    
        338.5       338.4       338.4       338.3       338.3    
  12    340.5       340.5       340.5       340.4       340.4       340.3       340.2       340.2       340.1       340.0    
        339.9       339.7       339.6       339.5       339.3       339.2       339.1       338.9       338.8       338.7    
        338.5       338.4       338.4       338.3       338.3    
  13    340.5       340.5       340.5       340.4       340.4       340.3       340.2       340.2       340.1       340.0    
        339.9       339.7       339.6       339.5       339.3       339.2       339.1       338.9       338.8       338.7    
        338.5       338.4       338.4       338.3       338.3    
  14    340.5       340.5       340.5       340.4       340.4       340.3       340.2       340.2       340.1       340.0    
        339.9       339.7       339.6       339.5       339.3       339.2       339.1       338.9       338.8       338.7    
        338.5       338.4       338.4       338.3       338.3    
  15    340.5       340.5       340.5       340.4       340.4       340.3       340.2       340.2       340.1       340.0    
        339.9       339.7       339.6       339.5       339.3       339.2       339.1       338.9       338.8       338.7    
        338.5       338.4       338.4       338.3       338.3    
  16    340.5       340.5       340.5       340.4       340.4       340.3       340.2       340.2       340.1       340.0    
        339.9       339.7       339.6       339.5       339.3       339.2       339.1       338.9       338.8       338.7    
        338.5       338.4       338.4       338.3       338.3    
  17    340.5       340.5       340.5       340.4       340.4       340.3       340.2       340.2       340.1       340.0    
        339.9       339.7       339.6       339.5       339.3       339.2       339.1       338.9       338.8       338.7    
        338.5       338.4       338.4       338.3       338.3    
  18    340.5       340.5       340.5       340.4       340.4       340.3       340.2       340.2       340.1       340.0    
        339.9       339.7       339.6       339.5       339.3       339.2       339.1       338.9       338.8       338.7    
        338.5       338.4       338.4       338.3       338.3    
  19    340.5       340.5       340.5       340.4       340.4       340.3       340.2       340.2       340.1       340.0    
        339.9       339.7       339.6       339.5       339.3       339.2       339.1       338.9       338.8       338.7    
        338.5       338.4       338.4       338.3       338.3    
  20    340.5       340.5       340.5       340.4       340.4       340.3       340.2       340.2       340.1       340.0    
        339.9       339.7       339.6       339.5       339.3       339.2       339.1       338.9       338.8       338.7    
        338.5       338.4       338.4       338.3       338.3    
  21    340.5       340.5       340.5       340.4       340.4       340.3       340.2       340.2       340.1       340.0    
        339.9       339.7       339.6       339.5       339.3       339.2       339.1       338.9       338.8       338.7    
        338.5       338.4       338.4       338.3       338.3    
  22    340.5       340.5       340.5       340.4       340.4       340.3       340.2       340.2       340.1       340.0    
        339.9       339.7       339.6       339.5       339.3       339.2       339.1       338.9       338.8       338.7    
        338.5       338.4       338.4       338.3       338.3    
  23    340.5       340.5       340.5       340.4       340.4       340.3       340.2       340.2       340.1       340.0    
        339.9       339.7       339.6       339.5       339.3       339.2       339.1       338.9       338.8       338.7    
        338.5       338.4       338.4       338.3       338.3    
  24    340.5       340.5       340.5       340.4       340.4       340.3       340.2       340.2       340.1       340.0    
        339.9       339.7       339.6       339.5       339.3       339.2       339.1       338.9       338.8       338.7    
        338.5       338.4       338.4       338.3       338.3    
  25    340.5       340.5       340.5       340.4       340.4       340.3       340.2       340.2       340.1       340.0    
        339.9       339.7       339.6       339.5       339.3       339.2       339.1       338.9       338.8       338.7    
        338.5       338.4       338.4       338.3       338.3    

 HEAD WILL BE SAVED ON UNIT   50 AT END OF TIME STEP   1, STRESS PERIOD    1
1
  VOLUMETRIC BUDGET FOR ENTIRE MODEL AT END OF TIME STEP  1 IN STRESS PERIOD   1
  ------------------------------------------------------------------------------

     CUMULATIVE VOLUMES      L**3       RATES FOR THIS TIME STEP      L**3/T
     ------------------                 ------------------------

           IN:                                      IN:
           ---                                      ---
             STORAGE =           0.0000               STORAGE =           0.0000
       CONSTANT HEAD =           0.0000         CONSTANT HEAD =           0.0000
               WELLS =           0.0000                 WELLS =           0.0000
       RIVER LEAKAGE =           0.0000         RIVER LEAKAGE =           0.0000
            RECHARGE = 99999997952.0000              RECHARGE =      500000.0000

            TOTAL IN = 99999997952.0000              TOTAL IN =      500000.0000

          OUT:                                     OUT:
          ----                                     ----
             STORAGE =           0.0000               STORAGE =           0.0000
       CONSTANT HEAD =           0.0000         CONSTANT HEAD =           0.0000
               WELLS =           0.0000                 WELLS =           0.0000
       RIVER LEAKAGE = 99999997952.0000         RIVER LEAKAGE =      500000.0000
            RECHARGE =           0.0000              RECHARGE =           0.0000

           TOTAL OUT = 99999997952.0000             TOTAL OUT =      500000.0000

            IN - OUT =           0.0000              IN - OUT =           0.0000

 PERCENT DISCREPANCY =           0.00     PERCENT DISCREPANCY =           0.00






          TIME SUMMARY AT END OF TIME STEP   1 IN STRESS PERIOD    1
                    SECONDS     MINUTES      HOURS       DAYS        YEARS
                    -----------------------------------------------------------
   TIME STEP LENGTH 1.72800E+10 2.88000E+08 4.80000E+06 2.00000E+05  547.57    
 STRESS PERIOD TIME 1.72800E+10 2.88000E+08 4.80000E+06 2.00000E+05  547.57    
         TOTAL TIME 1.72800E+10 2.88000E+08 4.80000E+06 2.00000E+05  547.57    
1
1
                            STRESS PERIOD NO.    2, LENGTH =   10000.00    
                            -----------------------------------------------

                              NUMBER OF TIME STEPS =    10

                               MULTIPLIER FOR DELT =     1.500

                            INITIAL TIME STEP SIZE =   88.23783    

 WELL NO.  LAYER   ROW   COL   STRESS RATE         IFACE           
 ------------------------------------------------------------------
      1      5     13     13     -0.1500E+06       0.000    

      1 WELL 

 REUSING NON-PARAMETER RIVER REACHES FROM LAST STRESS PERIOD

     25 RIVER REACHES

 REUSING RECH FROM LAST STRESS PERIOD
 
 SOLVING FOR HEAD 


     3 CALLS TO PCG ROUTINE FOR TIME STEP   1 IN STRESS PERIOD    2
    28 TOTAL ITERATIONS

 MAXIMUM HEAD CHANGE FOR EACH ITERATION (1 INDICATES THE FIRST INNER ITERATION):

    HEAD CHANGE    HEAD CHANGE    HEAD CHANGE    HEAD CHANGE    HEAD CHANGE 
   LAYER,ROW,COL  LAYER,ROW,COL  LAYER,ROW,COL  LAYER,ROW,COL  LAYER,ROW,COL
 ---------------------------------------------------------------------------
  1  -1.767      0  -1.716      0 -0.9293      0 -0.5006      0 -0.3272    
   (  5, 13, 13)  (  5, 13, 13)  (  5,  1, 23)  (  5, 11, 15)  (  5, 22,  5)
  0 -0.1148      0  0.9656E-01  0  0.5059E-01  0 -0.2938E-01  0 -0.1935E-01
   (  5, 21, 15)  (  3,  1, 24)  (  3, 17, 24)  (  5, 11, 16)  (  5, 16, 11)
  0 -0.2126E-01  0 -0.9023E-02  0 -0.5133E-02  0 -0.3238E-02  0 -0.2750E-02
   (  5,  1, 25)  (  3,  1,  9)  (  5, 14,  3)  (  5, 25,  1)  (  5,  1, 25)
  0  0.9804E-03  0  0.7733E-03  0 -0.4795E-03  0  0.1992E-03  0 -0.1367E-03
   (  3, 25, 20)  (  3, 24,  1)  (  5,  1, 25)  (  3, 22,  1)  (  5, 24,  3)
  1 -0.3041E-02  0  0.1491E-02  0  0.1006E-02  0  0.7040E-03  0  0.2129E-03
   (  2, 13, 24)  (  5,  2, 23)  (  3, 11, 10)  (  3, 16,  1)  (  3, 24,  1)
  0  0.2202E-03  0  0.7170E-04  1  0.6210E-04
   (  1, 25, 22)  (  1, 25, 21)  (  3, 24,  3)

 MAXIMUM RESIDUAL FOR EACH ITERATION (1 INDICATES THE FIRST INNER ITERATION):

    RESIDUAL       RESIDUAL       RESIDUAL       RESIDUAL       RESIDUAL    
   LAYER,ROW,COL  LAYER,ROW,COL  LAYER,ROW,COL  LAYER,ROW,COL  LAYER,ROW,COL
 ---------------------------------------------------------------------------
  1  0.1099E+06  0  0.4804E+05  0  0.1757E+05  0  0.1128E+05  0   6084.    
   (  5, 13, 13)  (  5, 13, 13)  (  5, 13, 13)  (  5, 14, 12)  (  4, 13, 14)
  0  -5270.      0  -4347.      0  -3243.      0  -2160.      0  -1385.    
   (  5, 13, 13)  (  5, 13, 13)  (  5, 13, 13)  (  5, 13, 13)  (  5, 13, 13)
  0  -625.0      0  -252.4      0   166.0      0   101.5      0  -55.76    
   (  5, 13, 13)  (  5, 13, 13)  (  4, 12, 15)  (  4, 15, 12)  (  4, 14, 13)
  0  -35.02      0  -15.72      0  -8.823      0   5.229      0   2.541    
   (  4, 13, 14)  (  4, 13, 14)  (  4, 14, 13)  (  4, 14, 12)  (  4, 12, 14)
  1   11.82      0   8.536      0   3.689      0  -2.545      0  -1.937    
   (  1, 13, 25)  (  1, 13, 25)  (  1,  1, 25)  (  2,  1, 24)  (  2,  1, 24)
  0 -0.6307      0 -0.4686      1 -0.4389    
   (  1, 25, 19)  (  1,  2, 22)  (  1,  2, 22)



 OUTPUT CONTROL FOR STRESS PERIOD    2   TIME STEP   1
    SAVE BUDGET
    PRINT HEAD FOR ALL LAYERS
    SAVE HEAD FOR ALL LAYERS
 UBDSV1 SAVING "         STORAGE" ON UNIT  53 AT TIME STEP  1, STRESS PERIOD   2
 UBDSV2 SAVING "   CONSTANT HEAD" ON UNIT  53 AT TIME STEP  1, STRESS PERIOD   2
 UBDSV1 SAVING "FLOW RIGHT FACE " ON UNIT  53 AT TIME STEP  1, STRESS PERIOD   2
 UBDSV1 SAVING "FLOW FRONT FACE " ON UNIT  53 AT TIME STEP  1, STRESS PERIOD   2
 UBDSV1 SAVING "FLOW LOWER FACE " ON UNIT  53 AT TIME STEP  1, STRESS PERIOD   2
 UBDSV4 SAVING "           WELLS" ON UNIT  53 AT TIME STEP  1, STRESS PERIOD   2
 UBDSV4 SAVING "   RIVER LEAKAGE" ON UNIT  53 AT TIME STEP  1, STRESS PERIOD   2
 UBDSV3 SAVING "        RECHARGE" ON UNIT  53 AT TIME STEP  1, STRESS PERIOD   2
1
              HEAD IN LAYER   1 AT END OF TIME STEP   1 IN STRESS PERIOD    2
  ---------------------------------------------------------------------------

            1           2           3           4           5           6           7           8           9          10
           11          12          13          14          15          16          17          18          19          20
           21          22          23          24          25
 ........................................................................................................................
   1    346.4       346.3       346.2       346.1       345.9       345.6       345.3       345.0       344.6       344.1    
        343.5       342.8       342.1       341.3       340.3       339.3       338.1       336.7       335.2       333.4    
        331.5       329.2       326.7       323.7       320.2    
   2    346.4       346.3       346.2       346.1       345.9       345.6       345.3       345.0       344.5       344.1    
        343.5       342.8       342.1       341.3       340.3       339.3       338.1       336.7       335.2       333.4    
        331.5       329.2       326.7       323.7       320.2    
   3    346.4       346.3       346.2       346.1       345.9       345.6       345.3       345.0       344.5       344.1    
        343.5       342.8       342.1       341.3       340.3       339.3       338.1       336.7       335.2       333.4    
        331.5       329.2       326.7       323.7       320.2    
   4    346.4       346.3       346.2       346.1       345.9       345.6       345.3       345.0       344.5       344.0    
        343.5       342.8       342.1       341.3       340.3       339.3       338.1       336.7       335.2       333.4    
        331.5       329.2       326.7       323.7       320.2    
   5    346.4       346.3       346.2       346.1       345.9       345.6       345.3       345.0       344.5       344.0    
        343.5       342.8       342.1       341.3       340.3       339.3       338.1       336.7       335.2       333.4    
        331.5       329.2       326.7       323.7       320.2    
   6    346.4       346.3       346.2       346.1       345.9       345.6       345.3       345.0       344.5       344.0    
        343.5       342.8       342.1       341.3       340.3       339.3       338.1       336.7       335.2       333.4    
        331.5       329.2       326.7       323.7       320.2    
   7    346.4       346.3       346.2       346.1       345.9       345.6       345.3       345.0       344.5       344.0    
        343.5       342.8       342.1       341.2       340.3       339.2       338.0       336.7       335.2       333.4    
        331.5       329.2       326.7       323.7       320.2    
   8    346.4       346.3       346.2       346.1       345.9       345.6       345.3       345.0       344.5       344.0    
        343.5       342.8       342.1       341.2       340.3       339.2       338.0       336.7       335.2       333.4    
        331.5       329.2       326.7       323.7       320.2    
   9    346.4       346.3       346.2       346.1       345.9       345.6       345.3       345.0       344.5       344.0    
        343.5       342.8       342.1       341.2       340.3       339.2       338.0       336.7       335.2       333.4    
        331.5       329.2       326.7       323.7       320.2    
  10    346.4       346.3       346.2       346.1       345.9       345.6       345.3       344.9       344.5       344.0    
        343.4       342.8       342.1       341.2       340.3       339.2       338.0       336.7       335.2       333.4    
        331.5       329.2       326.7       323.7       320.2    
  11    346.4       346.3       346.2       346.1       345.9       345.6       345.3       344.9       344.5       344.0    
        343.4       342.8       342.0       341.2       340.3       339.2       338.0       336.7       335.1       333.4    
        331.5       329.2       326.7       323.7       320.2    
  12    346.4       346.3       346.2       346.1       345.9       345.6       345.3       344.9       344.5       344.0    
        343.4       342.8       342.0       341.2       340.3       339.2       338.0       336.7       335.1       333.4    
        331.5       329.2       326.7       323.7       320.2    
  13    346.4       346.3       346.2       346.1       345.9       345.6       345.3       344.9       344.5       344.0    
        343.4       342.8       342.0       341.2       340.3       339.2       338.0       336.7       335.1       333.4    
        331.5       329.2       326.7       323.7       320.2    
  14    346.4       346.3       346.2       346.1       345.9       345.6       345.3       344.9       344.5       344.0    
        343.4       342.8       342.0       341.2       340.3       339.2       338.0       336.7       335.1       333.4    
        331.5       329.2       326.7       323.7       320.2    
  15    346.4       346.3       346.2       346.1       345.9       345.6       345.3       344.9       344.5       344.0    
        343.4       342.8       342.0       341.2       340.3       339.2       338.0       336.7       335.1       333.4    
        331.5       329.2       326.7       323.7       320.2    
  16    346.4       346.3       346.2       346.1       345.9       345.6       345.3       344.9       344.5       344.0    
        343.4       342.8       342.1       341.2       340.3       339.2       338.0       336.7       335.2       333.4    
        331.5       329.2       326.7       323.7       320.2    
  17    346.4       346.3       346.2       346.1       345.9       345.6       345.3       345.0       344.5       344.0    
        343.5       342.8       342.1       341.2       340.3       339.2       338.0       336.7       335.2       333.4    
        331.5       329.2       326.7       323.7       320.2    
  18    346.4       346.3       346.2       346.1       345.9       345.6       345.3       345.0       344.5       344.0    
        343.5       342.8       342.1       341.2       340.3       339.2       338.0       336.7       335.2       333.4    
        331.5       329.2       326.7       323.7       320.2    
  19    346.4       346.3       346.2       346.1       345.9       345.6       345.3       345.0       344.5       344.0    
        343.5       342.8       342.1       341.2       340.3       339.2       338.0       336.7       335.2       333.4    
        331.5       329.2       326.7       323.7       320.2    
  20    346.4       346.3       346.2       346.1       345.9       345.6       345.3       345.0       344.5       344.0    
        343.5       342.8       342.1       341.3       340.3       339.3       338.1       336.7       335.2       333.4    
        331.5       329.2       326.7       323.7       320.2    
  21    346.4       346.3       346.2       346.1       345.9       345.6       345.3       345.0       344.5       344.0    
        343.5       342.8       342.1       341.3       340.3       339.3       338.1       336.7       335.2       333.4    
        331.5       329.2       326.7       323.7       320.2    
  22    346.4       346.3       346.2       346.1       345.9       345.6       345.3       345.0       344.5       344.0    
        343.5       342.8       342.1       341.3       340.3       339.3       338.1       336.7       335.2       333.4    
        331.5       329.2       326.7       323.7       320.2    
  23    346.4       346.3       346.2       346.1       345.9       345.6       345.3       345.0       344.5       344.1    
        343.5       342.8       342.1       341.3       340.3       339.3       338.1       336.7       335.2       333.4    
        331.5       329.2       326.7       323.7       320.2    
  24    346.4       346.3       346.2       346.1       345.9       345.6       345.3       345.0       344.5       344.1    
        343.5       342.8       342.1       341.3       340.3       339.3       338.1       336.7       335.2       333.4    
        331.5       329.2       326.7       323.7       320.2    
  25    346.4       346.3       346.2       346.1       345.9       345.6       345.3       345.0       344.6       344.1    
        343.5       342.8       342.1       341.3       340.3       339.3       338.1       336.7       335.2       333.4    
        331.5       329.2       326.7       323.7       320.2    
1
              HEAD IN LAYER   2 AT END OF TIME STEP   1 IN STRESS PERIOD    2
  ---------------------------------------------------------------------------

            1           2           3           4           5           6           7           8           9          10
           11          12          13          14          15          16          17          18          19          20
           21          22          23          24          25
 ........................................................................................................................
   1    346.4       346.3       346.2       346.1       345.9       345.6       345.3       345.0       344.5       344.0    
        343.5       342.8       342.1       341.2       340.3       339.2       338.0       336.7       335.2       333.4    
        331.5       329.2       326.7       323.7       320.5    
   2    346.4       346.3       346.2       346.1       345.9       345.6       345.3       344.9       344.5       344.0    
        343.5       342.8       342.1       341.2       340.3       339.2       338.0       336.7       335.2       333.4    
        331.5       329.2       326.7       323.7       320.5    
   3    346.4       346.3       346.2       346.1       345.9       345.6       345.3       344.9       344.5       344.0    
        343.5       342.8       342.1       341.2       340.3       339.2       338.0       336.7       335.2       333.4    
        331.5       329.2       326.7       323.7       320.5    
   4    346.4       346.3       346.2       346.1       345.9       345.6       345.3       344.9       344.5       344.0    
        343.5       342.8       342.1       341.2       340.3       339.2       338.0       336.7       335.2       333.4    
        331.5       329.2       326.7       323.7       320.5    
   5    346.4       346.3       346.2       346.1       345.9       345.6       345.3       344.9       344.5       344.0    
        343.5       342.8       342.1       341.2       340.3       339.2       338.0       336.7       335.2       333.4    
        331.5       329.2       326.7       323.7       320.5    
   6    346.4       346.3       346.2       346.1       345.9       345.6       345.3       344.9       344.5       344.0    
        343.4       342.8       342.1       341.2       340.3       339.2       338.0       336.7       335.2       333.4    
        331.5       329.2       326.7       323.7       320.5    
   7    346.4       346.3       346.2       346.1       345.9       345.6       345.3       344.9       344.5       344.0    
        343.4       342.8       342.1       341.2       340.3       339.2       338.0       336.7       335.1       333.4    
        331.5       329.2       326.7       323.7       320.5    
   8    346.3       346.3       346.2       346.1       345.9       345.6       345.3       344.9       344.5       344.0    
        343.4       342.8       342.0       341.2       340.3       339.2       338.0       336.7       335.1       333.4    
        331.5       329.2       326.7       323.7       320.5    
   9    346.3       346.3       346.2       346.1       345.9       345.6       345.3       344.9       344.5       344.0    
        343.4       342.8       342.0       341.2       340.3       339.2       338.0       336.7       335.1       333.4    
        331.4       329.2       326.7       323.7       320.5    
  10    346.3       346.3       346.2       346.1       345.9       345.6       345.3       344.9       344.5       344.0    
        343.4       342.8       342.0       341.2       340.3       339.2       338.0       336.7       335.1       333.4    
        331.4       329.2       326.7       323.7       320.5    
  11    346.3       346.3       346.2       346.0       345.8       345.6       345.3       344.9       344.5       344.0    
        343.4       342.8       342.0       341.2       340.3       339.2       338.0       336.7       335.1       333.4    
        331.4       329.2       326.7       323.7       320.5    
  12    346.3       346.3       346.2       346.0       345.8       345.6       345.3       344.9       344.5       344.0    
        343.4       342.8       342.0       341.2       340.3       339.2       338.0       336.7       335.1       333.4    
        331.4       329.2       326.7       323.7       320.5    
  13    346.3       346.3       346.2       346.0       345.8       345.6       345.3       344.9       344.5       344.0    
        343.4       342.7       342.0       341.2       340.2       339.2       338.0       336.7       335.1       333.4    
        331.4       329.2       326.7       323.7       320.5    
  14    346.3       346.3       346.2       346.0       345.8       345.6       345.3       344.9       344.5       344.0    
[...]
        329.3       328.5       327.5       326.4       325.2    
  25    335.4       335.4       335.4       335.3       335.2       335.1       334.9       334.8       334.6       334.4    
        334.1       333.8       333.5       333.2       332.8       332.4       331.9       331.3       330.7       330.1    
        329.3       328.5       327.5       326.4       325.2    
1
              HEAD IN LAYER   4 AT END OF TIME STEP   1 IN STRESS PERIOD    3
  ---------------------------------------------------------------------------

            1           2           3           4           5           6           7           8           9          10
           11          12          13          14          15          16          17          18          19          20
           21          22          23          24          25
 ........................................................................................................................
   1    331.8       331.8       331.7       331.7       331.7       331.6       331.5       331.5       331.4       331.3    
        331.2       331.1       331.0       330.9       330.8       330.8       330.7       330.6       330.5       330.4    
        330.3       330.3       330.2       330.2       330.1    
   2    331.8       331.8       331.7       331.7       331.7       331.6       331.5       331.5       331.4       331.3    
        331.2       331.1       331.0       330.9       330.8       330.7       330.7       330.6       330.5       330.4    
        330.3       330.3       330.2       330.2       330.1    
   3    331.8       331.8       331.7       331.7       331.6       331.6       331.5       331.4       331.4       331.3    
        331.2       331.1       331.0       330.9       330.8       330.7       330.6       330.6       330.5       330.4    
        330.3       330.3       330.2       330.2       330.1    
   4    331.8       331.7       331.7       331.7       331.6       331.6       331.5       331.4       331.3       331.3    
        331.2       331.1       331.0       330.9       330.8       330.7       330.6       330.5       330.5       330.4    
        330.3       330.2       330.2       330.2       330.1    
   5    331.7       331.7       331.7       331.7       331.6       331.6       331.5       331.4       331.3       331.2    
        331.1       331.0       330.9       330.8       330.8       330.7       330.6       330.5       330.4       330.4    
        330.3       330.2       330.2       330.1       330.1    
   6    331.7       331.7       331.7       331.7       331.6       331.5       331.5       331.4       331.3       331.2    
        331.1       331.0       330.9       330.8       330.7       330.6       330.6       330.5       330.4       330.3    
        330.3       330.2       330.2       330.1       330.1    
   7    331.7       331.7       331.7       331.6       331.6       331.5       331.4       331.3       331.2       331.1    
        331.0       330.9       330.8       330.7       330.6       330.6       330.5       330.4       330.4       330.3    
        330.3       330.2       330.2       330.1       330.1    
   8    331.7       331.7       331.7       331.6       331.6       331.5       331.4       331.3       331.2       331.1    
        330.9       330.8       330.7       330.6       330.6       330.5       330.5       330.4       330.3       330.3    
        330.2       330.2       330.1       330.1       330.1    
   9    331.7       331.7       331.7       331.6       331.5       331.5       331.4       331.2       331.1       331.0    
        330.8       330.7       330.6       330.5       330.5       330.4       330.4       330.4       330.3       330.3    
        330.2       330.2       330.1       330.1       330.1    
  10    331.7       331.7       331.6       331.6       331.5       331.4       331.3       331.2       331.1       330.9    
        330.7       330.6       330.4       330.4       330.4       330.3       330.3       330.3       330.3       330.2    
        330.2       330.2       330.1       330.1       330.1    
  11    331.7       331.7       331.6       331.6       331.5       331.4       331.3       331.2       331.0       330.8    
        330.6       330.4       330.2       330.2       330.2       330.3       330.3       330.3       330.2       330.2    
        330.2       330.1       330.1       330.1       330.1    
  12    331.7       331.7       331.6       331.6       331.5       331.4       331.3       331.1       331.0       330.7    
        330.5       330.2       329.9       330.0       330.1       330.2       330.2       330.2       330.2       330.2    
        330.2       330.1       330.1       330.1       330.1    
  13    331.7       331.7       331.6       331.6       331.5       331.4       331.3       331.1       330.9       330.7    
        330.4       330.0       329.4       329.8       330.0       330.1       330.2       330.2       330.2       330.2    
        330.2       330.1       330.1       330.1       330.1    
  14    331.7       331.7       331.6       331.6       331.5       331.4       331.3       331.1       331.0       330.7    
        330.5       330.2       329.9       330.0       330.1       330.2       330.2       330.2       330.2       330.2    
        330.2       330.1       330.1       330.1       330.1    
  15    331.7       331.7       331.6       331.6       331.5       331.4       331.3       331.2       331.0       330.8    
        330.6       330.4       330.2       330.2       330.2       330.3       330.3       330.3       330.2       330.2    
        330.2       330.1       330.1       330.1       330.1    
  16    331.7       331.7       331.6       331.6       331.5       331.4       331.3       331.2       331.1       330.9    
        330.7       330.6       330.4       330.4       330.4       330.3       330.3       330.3       330.3       330.2    
        330.2       330.2       330.1       330.1       330.1    
  17    331.7       331.7       331.7       331.6       331.5       331.5       331.4       331.2       331.1       331.0    
        330.8       330.7       330.6       330.5       330.5       330.4       330.4       330.4       330.3       330.3    
        330.2       330.2       330.1       330.1       330.1    
  18    331.7       331.7       331.7       331.6       331.6       331.5       331.4       331.3       331.2       331.1    
        330.9       330.8       330.7       330.6       330.6       330.5       330.5       330.4       330.3       330.3    
        330.2       330.2       330.1       330.1       330.1    
  19    331.7       331.7       331.7       331.6       331.6       331.5       331.4       331.3       331.2       331.1    
        331.0       330.9       330.8       330.7       330.6       330.6       330.5       330.4       330.4       330.3    
        330.3       330.2       330.2       330.1       330.1    
  20    331.7       331.7       331.7       331.7       331.6       331.5       331.5       331.4       331.3       331.2    
        331.1       331.0       330.9       330.8       330.7       330.6       330.6       330.5       330.4       330.3    
        330.3       330.2       330.2       330.1       330.1    
  21    331.7       331.7       331.7       331.7       331.6       331.6       331.5       331.4       331.3       331.2    
        331.1       331.0       330.9       330.8       330.8       330.7       330.6       330.5       330.4       330.4    
        330.3       330.2       330.2       330.1       330.1    
  22    331.8       331.7       331.7       331.7       331.6       331.6       331.5       331.4       331.3       331.3    
        331.2       331.1       331.0       330.9       330.8       330.7       330.6       330.5       330.5       330.4    
        330.3       330.2       330.2       330.2       330.1    
  23    331.8       331.8       331.7       331.7       331.6       331.6       331.5       331.4       331.4       331.3    
        331.2       331.1       331.0       330.9       330.8       330.7       330.6       330.6       330.5       330.4    
        330.3       330.3       330.2       330.2       330.1    
  24    331.8       331.8       331.7       331.7       331.7       331.6       331.5       331.5       331.4       331.3    
        331.2       331.1       331.0       330.9       330.8       330.7       330.7       330.6       330.5       330.4    
        330.3       330.3       330.2       330.2       330.1    
  25    331.8       331.8       331.7       331.7       331.7       331.6       331.5       331.5       331.4       331.3    
        331.2       331.1       331.0       330.9       330.8       330.8       330.7       330.6       330.5       330.4    
        330.3       330.3       330.2       330.2       330.1    
1
              HEAD IN LAYER   5 AT END OF TIME STEP   1 IN STRESS PERIOD    3
  ---------------------------------------------------------------------------

            1           2           3           4           5           6           7           8           9          10
           11          12          13          14          15          16          17          18          19          20
           21          22          23          24          25
 ........................................................................................................................
   1    331.8       331.8       331.7       331.7       331.7       331.6       331.5       331.5       331.4       331.3    
        331.2       331.1       331.0       330.9       330.8       330.8       330.7       330.6       330.5       330.4    
        330.3       330.3       330.2       330.2       330.2    
   2    331.8       331.8       331.7       331.7       331.6       331.6       331.5       331.5       331.4       331.3    
        331.2       331.1       331.0       330.9       330.8       330.7       330.7       330.6       330.5       330.4    
        330.3       330.3       330.2       330.2       330.2    
   3    331.8       331.7       331.7       331.7       331.6       331.6       331.5       331.4       331.4       331.3    
        331.2       331.1       331.0       330.9       330.8       330.7       330.6       330.6       330.5       330.4    
        330.3       330.3       330.2       330.2       330.2    
   4    331.8       331.7       331.7       331.7       331.6       331.6       331.5       331.4       331.3       331.2    
        331.2       331.1       331.0       330.9       330.8       330.7       330.6       330.5       330.5       330.4    
        330.3       330.3       330.2       330.2       330.1    
   5    331.7       331.7       331.7       331.7       331.6       331.5       331.5       331.4       331.3       331.2    
        331.1       331.0       330.9       330.8       330.8       330.7       330.6       330.5       330.4       330.4    
        330.3       330.2       330.2       330.2       330.1    
   6    331.7       331.7       331.7       331.6       331.6       331.5       331.5       331.4       331.3       331.2    
        331.1       331.0       330.9       330.8       330.7       330.6       330.5       330.5       330.4       330.3    
        330.3       330.2       330.2       330.1       330.1    
   7    331.7       331.7       331.7       331.6       331.6       331.5       331.4       331.3       331.2       331.1    
        331.0       330.9       330.8       330.7       330.6       330.6       330.5       330.4       330.4       330.3    
        330.3       330.2       330.2       330.1       330.1    
   8    331.7       331.7       331.7       331.6       331.6       331.5       331.4       331.3       331.2       331.1    
        330.9       330.8       330.7       330.6       330.6       330.5       330.5       330.4       330.3       330.3    
        330.2       330.2       330.1       330.1       330.1    
   9    331.7       331.7       331.6       331.6       331.5       331.4       331.4       331.2       331.1       331.0    
        330.8       330.7       330.6       330.5       330.5       330.4       330.4       330.4       330.3       330.3    
        330.2       330.2       330.1       330.1       330.1    
  10    331.7       331.7       331.6       331.6       331.5       331.4       331.3       331.2       331.1       330.9    
        330.7       330.6       330.4       330.4       330.4       330.3       330.3       330.3       330.3       330.2    
        330.2       330.2       330.1       330.1       330.1    
  11    331.7       331.7       331.6       331.6       331.5       331.4       331.3       331.2       331.0       330.8    
        330.6       330.4       330.2       330.2       330.2       330.3       330.3       330.3       330.2       330.2    
        330.2       330.1       330.1       330.1       330.1    
  12    331.7       331.7       331.6       331.6       331.5       331.4       331.3       331.1       330.9       330.7    
        330.4       330.1       329.7       329.9       330.1       330.2       330.2       330.2       330.2       330.2    
        330.2       330.1       330.1       330.1       330.1    
  13    331.7       331.6       331.6       331.6       331.5       331.4       331.3       331.1       330.9       330.7    
        330.4       329.8       328.3       329.6       330.0       330.1       330.2       330.2       330.2       330.2    
        330.2       330.1       330.1       330.1       330.1    
  14    331.7       331.7       331.6       331.6       331.5       331.4       331.3       331.1       330.9       330.7    
        330.4       330.1       329.7       329.9       330.1       330.2       330.2       330.2       330.2       330.2    
        330.2       330.1       330.1       330.1       330.1    
  15    331.7       331.7       331.6       331.6       331.5       331.4       331.3       331.2       331.0       330.8    
        330.6       330.4       330.2       330.2       330.2       330.3       330.3       330.3       330.2       330.2    
        330.2       330.1       330.1       330.1       330.1    
  16    331.7       331.7       331.6       331.6       331.5       331.4       331.3       331.2       331.1       330.9    
        330.7       330.6       330.4       330.4       330.4       330.3       330.3       330.3       330.3       330.2    
        330.2       330.2       330.1       330.1       330.1    
  17    331.7       331.7       331.6       331.6       331.5       331.4       331.4       331.2       331.1       331.0    
        330.8       330.7       330.6       330.5       330.5       330.4       330.4       330.4       330.3       330.3    
        330.2       330.2       330.1       330.1       330.1    
  18    331.7       331.7       331.7       331.6       331.6       331.5       331.4       331.3       331.2       331.1    
        330.9       330.8       330.7       330.6       330.6       330.5       330.5       330.4       330.3       330.3    
        330.2       330.2       330.1       330.1       330.1    
  19    331.7       331.7       331.7       331.6       331.6       331.5       331.4       331.3       331.2       331.1    
        331.0       330.9       330.8       330.7       330.6       330.6       330.5       330.4       330.4       330.3    
        330.3       330.2       330.2       330.1       330.1    
  20    331.7       331.7       331.7       331.6       331.6       331.5       331.5       331.4       331.3       331.2    
        331.1       331.0       330.9       330.8       330.7       330.6       330.5       330.5       330.4       330.3    
        330.3       330.2       330.2       330.1       330.1    
  21    331.7       331.7       331.7       331.7       331.6       331.5       331.5       331.4       331.3       331.2    
        331.1       331.0       330.9       330.8       330.8       330.7       330.6       330.5       330.4       330.4    
        330.3       330.2       330.2       330.2       330.1    
  22    331.8       331.7       331.7       331.7       331.6       331.6       331.5       331.4       331.3       331.2    
        331.2       331.1       331.0       330.9       330.8       330.7       330.6       330.5       330.5       330.4    
        330.3       330.3       330.2       330.2       330.1    
  23    331.8       331.7       331.7       331.7       331.6       331.6       331.5       331.4       331.4       331.3    
        331.2       331.1       331.0       330.9       330.8       330.7       330.6       330.6       330.5       330.4    
        330.3       330.3       330.2       330.2       330.2    
  24    331.8       331.8       331.7       331.7       331.6       331.6       331.5       331.5       331.4       331.3    
        331.2       331.1       331.0       330.9       330.8       330.7       330.7       330.6       330.5       330.4    
        330.3       330.3       330.2       330.2       330.2    
  25    331.8       331.8       331.7       331.7       331.7       331.6       331.5       331.5       331.4       331.3    
        331.2       331.1       331.0       330.9       330.8       330.8       330.7       330.6       330.5       330.4    
        330.3       330.3       330.2       330.2       330.2    

 HEAD WILL BE SAVED ON UNIT   50 AT END OF TIME STEP   1, STRESS PERIOD    3
1
  VOLUMETRIC BUDGET FOR ENTIRE MODEL AT END OF TIME STEP  1 IN STRESS PERIOD   3
  ------------------------------------------------------------------------------

     CUMULATIVE VOLUMES      L**3       RATES FOR THIS TIME STEP      L**3/T
     ------------------                 ------------------------

           IN:                                      IN:
           ---                                      ---
             STORAGE =   133727768.0000               STORAGE =           0.0000
       CONSTANT HEAD =           0.0000         CONSTANT HEAD =           0.0000
               WELLS =           0.0000                 WELLS =           0.0000
       RIVER LEAKAGE =           0.0000         RIVER LEAKAGE =           0.0000
            RECHARGE =204999999488.0000              RECHARGE =      500000.0000

            TOTAL IN =205133725696.0000              TOTAL IN =      500000.0000

          OUT:                                     OUT:
          ----                                     ----
             STORAGE =           0.0000               STORAGE =           0.0000
       CONSTANT HEAD =           0.0000         CONSTANT HEAD =           0.0000
               WELLS = 31499999232.0000                 WELLS =      150000.0000
       RIVER LEAKAGE =173634256896.0000         RIVER LEAKAGE =      350001.6250
            RECHARGE =           0.0000              RECHARGE =           0.0000

           TOTAL OUT =205134249984.0000             TOTAL OUT =      500001.6250

            IN - OUT =     -524288.0000              IN - OUT =          -1.6250

 PERCENT DISCREPANCY =           0.00     PERCENT DISCREPANCY =           0.00






          TIME SUMMARY AT END OF TIME STEP   1 IN STRESS PERIOD    3
                    SECONDS     MINUTES      HOURS       DAYS        YEARS
                    -----------------------------------------------------------
   TIME STEP LENGTH 1.72800E+10 2.88000E+08 4.80000E+06 2.00000E+05  547.57    
 STRESS PERIOD TIME 1.72800E+10 2.88000E+08 4.80000E+06 2.00000E+05  547.57    
         TOTAL TIME 3.54240E+10 5.90400E+08 9.84000E+06 4.10000E+05  1122.5    
1

 Run end date and time (yyyy/mm/dd hh:mm:ss): 2011/10/11 16:34:27
 Elapsed run time:  0.187 Seconds

