 LISTING FILE: p8.LST
                         UNIT   6

 OPENING p8.BAS
 FILE TYPE:BAS   UNIT   1

 OPENING p8.BCF
 FILE TYPE:BCF   UNIT  11

 OPENING p8.RCH
 FILE TYPE:RCH   UNIT  18

 OPENING p8.PCG
 FILE TYPE:PCG   UNIT  13

 OPENING p8.OC
 FILE TYPE:OC   UNIT  22

 OPENING p8.FTL
 FILE TYPE:LMT   UNIT  32

 OPENING SHEAD.DAT
 FILE TYPE:DATA   UNIT  90

 OPENING p8.UFH
 FILE TYPE:DATA(BINARY)   UNIT  93
1                                 MODFLOW
      U.S. GEOLOGICAL SURVEY MODULAR FINITE-DIFFERENCE GROUND-WATER FLOW MODEL

 MT3DMS Benchmark Problem #8                                                     
 Sudicky 1989 Waterloo test problem                                              
   27 LAYERS         1 ROWS        50 COLUMNS
   1 STRESS PERIOD(S) IN SIMULATION
 MODEL TIME UNIT IS YEARS

 BAS5 -- BASIC MODEL PACKAGE, VERSION 5, 1/1/95 INPUT READ FROM UNIT  1
 ARRAYS RHS AND BUFF WILL SHARE MEMORY
 INITIAL HEAD WILL NOT BE KEPT THROUGHOUT THE SIMULATION, WHICH MEANS
 DRAWDOWN CANNOT BE CALCULATED
      12259 ELEMENTS IN X ARRAY ARE USED BY BAS
      12259 ELEMENTS OF X ARRAY USED OUT OF  999999999

 BCF5 -- BLOCK-CENTERED FLOW PACKAGE, VERSION 5, 9/1/93 INPUT READ FROM UNIT 11
 STEADY-STATE SIMULATION
 HEAD AT CELLS THAT CONVERT TO DRY=  0.10000E+31
 WETTING CAPABILITY IS NOT ACTIVE
      LAYER  LAYER-TYPE CODE     INTERBLOCK T
      --------------------------------------------
         1            1          0 -- HARMONIC    
         2            3          0 -- HARMONIC    
         3            3          0 -- HARMONIC    
         4            3          0 -- HARMONIC    
         5            3          0 -- HARMONIC    
         6            3          0 -- HARMONIC    
         7            0          0 -- HARMONIC    
         8            0          0 -- HARMONIC    
         9            0          0 -- HARMONIC    
        10            0          0 -- HARMONIC    
        11            0          0 -- HARMONIC    
        12            0          0 -- HARMONIC    
        13            0          0 -- HARMONIC    
        14            0          0 -- HARMONIC    
        15            0          0 -- HARMONIC    
        16            0          0 -- HARMONIC    
        17            0          0 -- HARMONIC    
        18            0          0 -- HARMONIC    
        19            0          0 -- HARMONIC    
        20            0          0 -- HARMONIC    
        21            0          0 -- HARMONIC    
        22            0          0 -- HARMONIC    
        23            0          0 -- HARMONIC    
        24            0          0 -- HARMONIC    
        25            0          0 -- HARMONIC    
        26            0          0 -- HARMONIC    
        27            0          0 -- HARMONIC    
        877 ELEMENTS IN X ARRAY ARE USED BY BCF
      13136 ELEMENTS OF X ARRAY USED OUT OF  999999999

 RCH5 -- RECHARGE PACKAGE, VERSION 5, 6/1/95 INPUT READ FROM UNIT 18
 OPTION 3 -- RECHARGE TO HIGHEST ACTIVE NODE IN EACH VERTICAL COLUMN
        100 ELEMENTS IN X ARRAY ARE USED BY RCH
      13236 ELEMENTS OF X ARRAY USED OUT OF  999999999
0PCG2 -- CONJUGATE GRADIENT SOLUTION PACKAGE, VERSION 2.1, 6/1/95
 MAXIMUM OF  50 CALLS OF SOLUTION ROUTINE
 MAXIMUM OF   5 INTERNAL ITERATIONS PER CALL TO SOLUTION ROUTINE
 MATRIX PRECONDITIONING TYPE :    1
    7650 ELEMENTS IN X ARRAY ARE USED BY PCG
   20886 ELEMENTS OF X ARRAY USED OUT OF 999999999
1
 MT3DMS Benchmark Problem #8                                                     
 Sudicky 1989 Waterloo test problem                                              



                     BOUNDARY ARRAY FOR LAYER   1
 READING ON UNIT   1 WITH FORMAT: (6x,20i3)           



                     BOUNDARY ARRAY FOR LAYER   2
 READING ON UNIT   1 WITH FORMAT: (6x,20i3)           



                     BOUNDARY ARRAY FOR LAYER   3
 READING ON UNIT   1 WITH FORMAT: (6x,20i3)           



                     BOUNDARY ARRAY FOR LAYER   4
 READING ON UNIT   1 WITH FORMAT: (6x,20i3)           



                     BOUNDARY ARRAY FOR LAYER   5
 READING ON UNIT   1 WITH FORMAT: (6x,20i3)           



                     BOUNDARY ARRAY FOR LAYER   6
 READING ON UNIT   1 WITH FORMAT: (6x,20i3)           



                     BOUNDARY ARRAY FOR LAYER   7
 READING ON UNIT   1 WITH FORMAT: (6x,20i3)           



                     BOUNDARY ARRAY FOR LAYER   8
 READING ON UNIT   1 WITH FORMAT: (6x,20i3)           



                     BOUNDARY ARRAY FOR LAYER   9
 READING ON UNIT   1 WITH FORMAT: (6x,20i3)           



                     BOUNDARY ARRAY FOR LAYER  10
 READING ON UNIT   1 WITH FORMAT: (6x,20i3)           



                     BOUNDARY ARRAY FOR LAYER  11
 READING ON UNIT   1 WITH FORMAT: (6x,20i3)           



                     BOUNDARY ARRAY FOR LAYER  12
 READING ON UNIT   1 WITH FORMAT: (6x,20i3)           



                     BOUNDARY ARRAY FOR LAYER  13
 READING ON UNIT   1 WITH FORMAT: (6x,20i3)           



                     BOUNDARY ARRAY FOR LAYER  14
 READING ON UNIT   1 WITH FORMAT: (6x,20i3)           



                     BOUNDARY ARRAY FOR LAYER  15
 READING ON UNIT   1 WITH FORMAT: (6x,20i3)           



                     BOUNDARY ARRAY FOR LAYER  16
 READING ON UNIT   1 WITH FORMAT: (6x,20i3)           



                     BOUNDARY ARRAY FOR LAYER  17
 READING ON UNIT   1 WITH FORMAT: (6x,20i3)           



                     BOUNDARY ARRAY FOR LAYER  18
 READING ON UNIT   1 WITH FORMAT: (6x,20i3)           



                     BOUNDARY ARRAY FOR LAYER  19
 READING ON UNIT   1 WITH FORMAT: (6x,20i3)           



                     BOUNDARY ARRAY FOR LAYER  20
 READING ON UNIT   1 WITH FORMAT: (6x,20i3)           



                     BOUNDARY ARRAY FOR LAYER  21
 READING ON UNIT   1 WITH FORMAT: (6x,20i3)           



                     BOUNDARY ARRAY FOR LAYER  22
 READING ON UNIT   1 WITH FORMAT: (6x,20i3)           



                     BOUNDARY ARRAY FOR LAYER  23
 READING ON UNIT   1 WITH FORMAT: (6x,20i3)           



                     BOUNDARY ARRAY FOR LAYER  24
 READING ON UNIT   1 WITH FORMAT: (6x,20i3)           



                     BOUNDARY ARRAY FOR LAYER  25
 READING ON UNIT   1 WITH FORMAT: (6x,20i3)           



                     BOUNDARY ARRAY FOR LAYER  26
 READING ON UNIT   1 WITH FORMAT: (6x,20i3)           



                     BOUNDARY ARRAY FOR LAYER  27
 READING ON UNIT   1 WITH FORMAT: (6x,20i3)           

 AQUIFER HEAD WILL BE SET TO -999.00     AT ALL NO-FLOW NODES (IBOUND=0).



                       INITIAL HEAD FOR LAYER   1
 READING ON UNIT  90 WITH FORMAT: (12f12.0)           

           1          2          3          4          5          6          7          8          9         10         11
          12         13         14         15         16         17         18         19         20         21         22
          23         24         25         26         27         28         29         30         31         32         33
          34         35         36         37         38         39         40         41         42         43         44
          45         46         47         48         49         50
 .........................................................................................................................
   1    6.67       6.67       6.67       6.67       6.66       6.66       6.66       6.66       6.66       6.65       6.65    
        6.64       6.64       6.64       6.63       6.63       6.62       6.61       6.61       6.60       6.59       6.59    
        6.58       6.57       6.52      -999.      -999.      -999.      -999.      -999.      -999.      -999.      -999.    
       -999.      -999.      -999.      -999.      -999.      -999.      -999.      -999.      -999.      -999.      -999.    
       -999.      -999.      -999.      -999.      -999.      -999.    



                       INITIAL HEAD FOR LAYER   2
 READING ON UNIT  90 WITH FORMAT: (12f12.0)           

           1          2          3          4          5          6          7          8          9         10         11
          12         13         14         15         16         17         18         19         20         21         22
          23         24         25         26         27         28         29         30         31         32         33
          34         35         36         37         38         39         40         41         42         43         44
          45         46         47         48         49         50
 .........................................................................................................................
   1    6.67       6.67       6.67       6.67       6.66       6.66       6.66       6.66       6.66       6.65       6.65    
        6.64       6.64       6.64       6.63       6.63       6.62       6.61       6.61       6.60       6.59       6.59    
        6.58       6.57       6.52       6.46       6.40       6.33       6.26      -999.      -999.      -999.      -999.    
       -999.      -999.      -999.      -999.      -999.      -999.      -999.      -999.      -999.      -999.      -999.    
       -999.      -999.      -999.      -999.      -999.      -999.    



                       INITIAL HEAD FOR LAYER   3
 READING ON UNIT  90 WITH FORMAT: (12f12.0)           

           1          2          3          4          5          6          7          8          9         10         11
          12         13         14         15         16         17         18         19         20         21         22
          23         24         25         26         27         28         29         30         31         32         33
          34         35         36         37         38         39         40         41         42         43         44
          45         46         47         48         49         50
 .........................................................................................................................
   1    6.67       6.67       6.67       6.67       6.66       6.66       6.66       6.66       6.66       6.65       6.65    
        6.64       6.64       6.64       6.63       6.63       6.62       6.61       6.61       6.60       6.59       6.59    
        6.58       6.57       6.52       6.46       6.40       6.33       6.26       6.18       6.11       6.03      -999.    
       -999.      -999.      -999.      -999.      -999.      -999.      -999.      -999.      -999.      -999.      -999.    
       -999.      -999.      -999.      -999.      -999.      -999.    



                       INITIAL HEAD FOR LAYER   4
 READING ON UNIT  90 WITH FORMAT: (12f12.0)           

           1          2          3          4          5          6          7          8          9         10         11
          12         13         14         15         16         17         18         19         20         21         22
          23         24         25         26         27         28         29         30         31         32         33
          34         35         36         37         38         39         40         41         42         43         44
          45         46         47         48         49         50
 .........................................................................................................................
   1    6.67       6.67       6.67       6.67       6.66       6.66       6.66       6.66       6.66       6.65       6.65    
        6.64       6.64       6.64       6.63       6.63       6.62       6.61       6.61       6.60       6.59       6.59    
        6.58       6.57       6.52       6.46       6.40       6.33       6.26       6.18       6.11       6.03       5.94    
        5.85       5.76      -999.      -999.      -999.      -999.      -999.      -999.      -999.      -999.      -999.    
       -999.      -999.      -999.      -999.      -999.      -999.    



                       INITIAL HEAD FOR LAYER   5
 READING ON UNIT  90 WITH FORMAT: (12f12.0)           

           1          2          3          4          5          6          7          8          9         10         11
          12         13         14         15         16         17         18         19         20         21         22
          23         24         25         26         27         28         29         30         31         32         33
          34         35         36         37         38         39         40         41         42         43         44
          45         46         47         48         49         50
 .........................................................................................................................
   1    6.67       6.67       6.67       6.67       6.66       6.66       6.66       6.66       6.66       6.65       6.65    
        6.64       6.64       6.64       6.63       6.63       6.62       6.61       6.61       6.60       6.59       6.59    
        6.58       6.57       6.52       6.46       6.40       6.33       6.26       6.18       6.11       6.03       5.94    
        5.85       5.76       5.66       5.58       5.57       5.55       5.54       5.52       5.51      -999.      -999.    
       -999.      -999.      -999.      -999.      -999.      -999.    



                       INITIAL HEAD FOR LAYER   6
 READING ON UNIT  90 WITH FORMAT: (12f12.0)           

           1          2          3          4          5          6          7          8          9         10         11
          12         13         14         15         16         17         18         19         20         21         22
          23         24         25         26         27         28         29         30         31         32         33
          34         35         36         37         38         39         40         41         42         43         44
          45         46         47         48         49         50
 .........................................................................................................................
   1    6.67       6.67       6.67       6.67       6.66       6.66       6.66       6.66       6.65       6.65       6.65    
        6.64       6.64       6.64       6.63       6.62       6.62       6.61       6.61       6.60       6.59       6.59    
        6.58       6.57       6.52       6.46       6.40       6.33       6.26       6.18       6.11       6.03       5.94    
        5.85       5.76       5.66       5.58       5.57       5.55       5.54       5.52       5.51       5.49       5.48    
        5.46       5.45       5.43       5.41       5.39       5.38    



                       INITIAL HEAD FOR LAYER   7
 READING ON UNIT  90 WITH FORMAT: (12f12.0)           

           1          2          3          4          5          6          7          8          9         10         11
          12         13         14         15         16         17         18         19         20         21         22
          23         24         25         26         27         28         29         30         31         32         33
          34         35         36         37         38         39         40         41         42         43         44
          45         46         47         48         49         50
 .........................................................................................................................
   1    6.67       6.67       6.67       6.67       6.66       6.66       6.66       6.66       6.65       6.65       6.65    
        6.64       6.64       6.64       6.63       6.62       6.62       6.61       6.61       6.60       6.59       6.59    
        6.58       6.57       6.52       6.46       6.40       6.33       6.26       6.18       6.11       6.02       5.94    
        5.85       5.76       5.66       5.58       5.57       5.55       5.54       5.52       5.51       5.49       5.48    
        5.46       5.45       5.43       5.41       5.39       5.38    



                       INITIAL HEAD FOR LAYER   8
 READING ON UNIT  90 WITH FORMAT: (12f12.0)           

           1          2          3          4          5          6          7          8          9         10         11
          12         13         14         15         16         17         18         19         20         21         22
          23         24         25         26         27         28         29         30         31         32         33
          34         35         36         37         38         39         40         41         42         43         44
          45         46         47         48         49         50
 .........................................................................................................................
   1    6.67       6.67       6.67       6.67       6.66       6.66       6.66       6.66       6.65       6.65       6.65    
        6.64       6.64       6.64       6.63       6.62       6.62       6.61       6.61       6.60       6.59       6.59    
        6.58       6.57       6.52       6.46       6.40       6.33       6.26       6.18       6.11       6.02       5.94    
        5.85       5.76       5.66       5.58       5.57       5.55       5.54       5.52       5.51       5.49       5.48    
        5.46       5.45       5.43       5.41       5.39       5.38    



                       INITIAL HEAD FOR LAYER   9
 READING ON UNIT  90 WITH FORMAT: (12f12.0)           

           1          2          3          4          5          6          7          8          9         10         11
          12         13         14         15         16         17         18         19         20         21         22
          23         24         25         26         27         28         29         30         31         32         33
          34         35         36         37         38         39         40         41         42         43         44
          45         46         47         48         49         50
 .........................................................................................................................
   1    6.67       6.67       6.67       6.67       6.66       6.66       6.66       6.66       6.65       6.65       6.65    
        6.64       6.64       6.63       6.63       6.62       6.62       6.61       6.61       6.60       6.59       6.58    
        6.58       6.57       6.52       6.46       6.40       6.33       6.26       6.18       6.11       6.02       5.94    
        5.85       5.76       5.66       5.58       5.57       5.55       5.54       5.52       5.51       5.49       5.48    
        5.46       5.45       5.43       5.41       5.39       5.38    



                       INITIAL HEAD FOR LAYER  10
 READING ON UNIT  90 WITH FORMAT: (12f12.0)           

           1          2          3          4          5          6          7          8          9         10         11
          12         13         14         15         16         17         18         19         20         21         22
          23         24         25         26         27         28         29         30         31         32         33
          34         35         36         37         38         39         40         41         42         43         44
          45         46         47         48         49         50
 .........................................................................................................................
   1    6.67       6.67       6.67       6.66       6.66       6.66       6.66       6.66       6.65       6.65       6.65    
        6.64       6.64       6.63       6.63       6.62       6.62       6.61       6.61       6.60       6.59       6.58    
        6.58       6.57       6.52       6.46       6.40       6.33       6.26       6.18       6.11       6.02       5.94    
        5.85       5.76       5.66       5.58       5.57       5.55       5.54       5.52       5.51       5.49       5.48    
        5.46       5.44       5.43       5.41       5.39       5.38    



                       INITIAL HEAD FOR LAYER  11
 READING ON UNIT  90 WITH FORMAT: (12f12.0)           

           1          2          3          4          5          6          7          8          9         10         11
          12         13         14         15         16         17         18         19         20         21         22
          23         24         25         26         27         28         29         30         31         32         33
          34         35         36         37         38         39         40         41         42         43         44
          45         46         47         48         49         50
 .........................................................................................................................
   1    6.67       6.67       6.67       6.66       6.66       6.66       6.66       6.66       6.65       6.65       6.65    
        6.64       6.64       6.63       6.63       6.62       6.62       6.61       6.61       6.60       6.59       6.58    
        6.58       6.57       6.52       6.46       6.40       6.33       6.26       6.18       6.11       6.02       5.94    
        5.85       5.76       5.66       5.58       5.57       5.55       5.54       5.52       5.51       5.49       5.48    
        5.46       5.44       5.43       5.41       5.39       5.38    



                       INITIAL HEAD FOR LAYER  12
 READING ON UNIT  90 WITH FORMAT: (12f12.0)           

           1          2          3          4          5          6          7          8          9         10         11
          12         13         14         15         16         17         18         19         20         21         22
          23         24         25         26         27         28         29         30         31         32         33
          34         35         36         37         38         39         40         41         42         43         44
          45         46         47         48         49         50
 .........................................................................................................................
   1    6.67       6.67       6.67       6.66       6.66       6.66       6.66       6.66       6.65       6.65       6.65    
        6.64       6.64       6.63       6.63       6.62       6.62       6.61       6.61       6.60       6.59       6.58    
        6.58       6.57       6.52       6.46       6.40       6.33       6.26       6.18       6.11       6.02       5.94    
        5.85       5.76       5.66       5.58       5.57       5.55       5.54       5.52       5.51       5.49       5.48    
        5.46       5.44       5.43       5.41       5.39       5.38    



                       INITIAL HEAD FOR LAYER  13
 READING ON UNIT  90 WITH FORMAT: (12f12.0)           

           1          2          3          4          5          6          7          8          9         10         11
          12         13         14         15         16         17         18         19         20         21         22
          23         24         25         26         27         28         29         30         31         32         33
          34         35         36         37         38         39         40         41         42         43         44
          45         46         47         48         49         50
 .........................................................................................................................
   1    6.67       6.67       6.67       6.66       6.66       6.66       6.66       6.66       6.65       6.65       6.65    
        6.64       6.64       6.63       6.63       6.62       6.62       6.61       6.61       6.60       6.59       6.58    
        6.58       6.57       6.52       6.46       6.40       6.33       6.26       6.18       6.11       6.02       5.94    
        5.85       5.76       5.66       5.58       5.57       5.55       5.54       5.52       5.51       5.49       5.48    
        5.46       5.44       5.43       5.41       5.39       5.38    



                       INITIAL HEAD FOR LAYER  14
 READING ON UNIT  90 WITH FORMAT: (12f12.0)           

           1          2          3          4          5          6          7          8          9         10         11
          12         13         14         15         16         17         18         19         20         21         22
          23         24         25         26         27         28         29         30         31         32         33
          34         35         36         37         38         39         40         41         42         43         44
          45         46         47         48         49         50
 .........................................................................................................................
   1    6.67       6.67       6.67       6.66       6.66       6.66       6.66       6.66       6.65       6.65       6.65    
        6.64       6.64       6.63       6.63       6.62       6.62       6.61       6.61       6.60       6.59       6.58    
        6.58       6.57       6.52       6.46       6.40       6.33       6.26       6.18       6.11       6.02       5.94    
        5.85       5.76       5.66       5.58       5.57       5.55       5.54       5.52       5.51       5.49       5.48    
        5.46       5.44       5.43       5.41       5.39       5.38    



                       INITIAL HEAD FOR LAYER  15
 READING ON UNIT  90 WITH FORMAT: (12f12.0)           

           1          2          3          4          5          6          7          8          9         10         11
          12         13         14         15         16         17         18         19         20         21         22
          23         24         25         26         27         28         29         30         31         32         33
          34         35         36         37         38         39         40         41         42         43         44
          45         46         47         48         49         50
 .........................................................................................................................
   1    6.67       6.67       6.67       6.66       6.66       6.66       6.66       6.66       6.65       6.65       6.65    
        6.64       6.64       6.63       6.63       6.62       6.62       6.61       6.61       6.60       6.59       6.58    
        6.58       6.57       6.52       6.46       6.40       6.33       6.26       6.18       6.11       6.02       5.94    
        5.85       5.76       5.66       5.58       5.57       5.55       5.54       5.52       5.51       5.49       5.48    
        5.46       5.44       5.43       5.41       5.39       5.38    



                       INITIAL HEAD FOR LAYER  16
 READING ON UNIT  90 WITH FORMAT: (12f12.0)           

           1          2          3          4          5          6          7          8          9         10         11
          12         13         14         15         16         17         18         19         20         21         22
          23         24         25         26         27         28         29         30         31         32         33
          34         35         36         37         38         39         40         41         42         43         44
          45         46         47         48         49         50
 .........................................................................................................................
   1    6.67       6.67       6.67       6.66       6.66       6.66       6.66       6.66       6.65       6.65       6.65    
        6.64       6.64       6.63       6.63       6.62       6.62       6.61       6.61       6.60       6.59       6.58    
        6.58       6.57       6.52       6.46       6.40       6.33       6.26       6.18       6.11       6.02       5.94    
        5.85       5.76       5.66       5.58       5.57       5.55       5.54       5.52       5.51       5.49       5.48    
        5.46       5.44       5.43       5.41       5.39       5.38    



                       INITIAL HEAD FOR LAYER  17
 READING ON UNIT  90 WITH FORMAT: (12f12.0)           

           1          2          3          4          5          6          7          8          9         10         11
          12         13         14         15         16         17         18         19         20         21         22
          23         24         25         26         27         28         29         30         31         32         33
          34         35         36         37         38         39         40         41         42         43         44
          45         46         47         48         49         50
 .........................................................................................................................
   1    6.67       6.67       6.67       6.66       6.66       6.66       6.66       6.66       6.65       6.65       6.65    
        6.64       6.64       6.63       6.63       6.62       6.62       6.61       6.61       6.60       6.59       6.58    
        6.58       6.57       6.52       6.46       6.40       6.33       6.26       6.18       6.10       6.02       5.94    
        5.85       5.76       5.66       5.58       5.57       5.55       5.54       5.52       5.51       5.49       5.48    
        5.46       5.44       5.43       5.41       5.39       5.38    



                       INITIAL HEAD FOR LAYER  18
 READING ON UNIT  90 WITH FORMAT: (12f12.0)           

           1          2          3          4          5          6          7          8          9         10         11
          12         13         14         15         16         17         18         19         20         21         22
          23         24         25         26         27         28         29         30         31         32         33
          34         35         36         37         38         39         40         41         42         43         44
          45         46         47         48         49         50
 .........................................................................................................................
   1    6.67       6.67       6.67       6.66       6.66       6.66       6.66       6.66       6.65       6.65       6.65    
        6.64       6.64       6.63       6.63       6.62       6.62       6.61       6.61       6.60       6.59       6.58    
        6.58       6.57       6.52       6.46       6.40       6.33       6.26       6.18       6.10       6.02       5.94    
        5.85       5.76       5.66       5.58       5.57       5.55       5.54       5.52       5.51       5.49       5.48    
        5.46       5.44       5.43       5.41       5.39       5.38    



                       INITIAL HEAD FOR LAYER  19
 READING ON UNIT  90 WITH FORMAT: (12f12.0)           

           1          2          3          4          5          6          7          8          9         10         11
          12         13         14         15         16         17         18         19         20         21         22
          23         24         25         26         27         28         29         30         31         32         33
          34         35         36         37         38         39         40         41         42         43         44
          45         46         47         48         49         50
 .........................................................................................................................
   1    6.67       6.67       6.67       6.66       6.66       6.66       6.66       6.66       6.65       6.65       6.65    
        6.64       6.64       6.63       6.63       6.62       6.62       6.61       6.61       6.60       6.59       6.58    
        6.58       6.57       6.52       6.46       6.40       6.33       6.26       6.18       6.10       6.02       5.94    
        5.85       5.76       5.66       5.58       5.57       5.55       5.54       5.52       5.51       5.49       5.48    
        5.46       5.44       5.43       5.41       5.39       5.38    



                       INITIAL HEAD FOR LAYER  20
 READING ON UNIT  90 WITH FORMAT: (12f12.0)           

           1          2          3          4          5          6          7          8          9         10         11
          12         13         14         15         16         17         18         19         20         21         22
          23         24         25         26         27         28         29         30         31         32         33
          34         35         36         37         38         39         40         41         42         43         44
          45         46         47         48         49         50
 .........................................................................................................................
   1    6.67       6.67       6.67       6.66       6.66       6.66       6.66       6.66       6.65       6.65       6.65    
        6.64       6.64       6.63       6.63       6.62       6.62       6.61       6.61       6.60       6.59       6.58    
        6.58       6.57       6.52       6.46       6.40       6.33       6.26       6.18       6.10       6.02       5.94    
        5.85       5.75       5.66       5.58       5.57       5.55       5.54       5.52       5.51       5.49       5.48    
        5.46       5.44       5.43       5.41       5.39       5.38    



                       INITIAL HEAD FOR LAYER  21
 READING ON UNIT  90 WITH FORMAT: (12f12.0)           

           1          2          3          4          5          6          7          8          9         10         11
          12         13         14         15         16         17         18         19         20         21         22
          23         24         25         26         27         28         29         30         31         32         33
          34         35         36         37         38         39         40         41         42         43         44
          45         46         47         48         49         50
 .........................................................................................................................
   1    6.67       6.67       6.67       6.66       6.66       6.66       6.66       6.66       6.65       6.65       6.65    
        6.64       6.64       6.63       6.63       6.62       6.62       6.61       6.61       6.60       6.59       6.58    
        6.58       6.57       6.52       6.46       6.40       6.33       6.26       6.18       6.10       6.02       5.94    
        5.85       5.75       5.66       5.58       5.57       5.55       5.54       5.52       5.51       5.49       5.48    
        5.46       5.44       5.43       5.41       5.39       5.38    



                       INITIAL HEAD FOR LAYER  22
 READING ON UNIT  90 WITH FORMAT: (12f12.0)           

           1          2          3          4          5          6          7          8          9         10         11
          12         13         14         15         16         17         18         19         20         21         22
          23         24         25         26         27         28         29         30         31         32         33
          34         35         36         37         38         39         40         41         42         43         44
          45         46         47         48         49         50
 .........................................................................................................................
   1    6.67       6.67       6.67       6.66       6.66       6.66       6.66       6.66       6.65       6.65       6.65    
        6.64       6.64       6.63       6.63       6.62       6.62       6.61       6.61       6.60       6.59       6.58    
        6.58       6.57       6.52       6.46       6.40       6.33       6.26       6.18       6.10       6.02       5.94    
        5.85       5.75       5.66       5.58       5.57       5.55       5.54       5.52       5.51       5.49       5.48    
        5.46       5.44       5.43       5.41       5.39       5.38    



                       INITIAL HEAD FOR LAYER  23
 READING ON UNIT  90 WITH FORMAT: (12f12.0)           

           1          2          3          4          5          6          7          8          9         10         11
          12         13         14         15         16         17         18         19         20         21         22
          23         24         25         26         27         28         29         30         31         32         33
          34         35         36         37         38         39         40         41         42         43         44
          45         46         47         48         49         50
 .........................................................................................................................
   1    6.67       6.67       6.67       6.66       6.66       6.66       6.66       6.66       6.65       6.65       6.65    
        6.64       6.64       6.63       6.63       6.62       6.62       6.61       6.61       6.60       6.59       6.58    
        6.58       6.57       6.52       6.46       6.40       6.33       6.26       6.18       6.10       6.02       5.94    
        5.85       5.75       5.66       5.58       5.57       5.55       5.54       5.52       5.51       5.49       5.48    
        5.46       5.44       5.43       5.41       5.39       5.38    



                       INITIAL HEAD FOR LAYER  24
 READING ON UNIT  90 WITH FORMAT: (12f12.0)           

           1          2          3          4          5          6          7          8          9         10         11
          12         13         14         15         16         17         18         19         20         21         22
          23         24         25         26         27         28         29         30         31         32         33
          34         35         36         37         38         39         40         41         42         43         44
          45         46         47         48         49         50
 .........................................................................................................................
   1    6.67       6.67       6.67       6.66       6.66       6.66       6.66       6.66       6.65       6.65       6.65    
        6.64       6.64       6.63       6.63       6.62       6.62       6.61       6.61       6.60       6.59       6.58    
        6.58       6.57       6.52       6.46       6.40       6.33       6.26       6.18       6.10       6.02       5.94    
        5.85       5.75       5.66       5.58       5.57       5.55       5.54       5.52       5.51       5.49       5.48    
        5.46       5.44       5.43       5.41       5.39       5.38    



                       INITIAL HEAD FOR LAYER  25
 READING ON UNIT  90 WITH FORMAT: (12f12.0)           

           1          2          3          4          5          6          7          8          9         10         11
          12         13         14         15         16         17         18         19         20         21         22
          23         24         25         26         27         28         29         30         31         32         33
          34         35         36         37         38         39         40         41         42         43         44
          45         46         47         48         49         50
 .........................................................................................................................
   1    6.67       6.67       6.67       6.66       6.66       6.66       6.66       6.66       6.65       6.65       6.65    
        6.64       6.64       6.63       6.63       6.62       6.62       6.61       6.61       6.60       6.59       6.58    
        6.58       6.57       6.52       6.46       6.40       6.33       6.26       6.18       6.10       6.02       5.94    
        5.85       5.75       5.66       5.58       5.57       5.55       5.54       5.52       5.51       5.49       5.48    
        5.46       5.44       5.43       5.41       5.39       5.38    



                       INITIAL HEAD FOR LAYER  26
 READING ON UNIT  90 WITH FORMAT: (12f12.0)           

           1          2          3          4          5          6          7          8          9         10         11
          12         13         14         15         16         17         18         19         20         21         22
          23         24         25         26         27         28         29         30         31         32         33
          34         35         36         37         38         39         40         41         42         43         44
          45         46         47         48         49         50
 .........................................................................................................................
   1    6.67       6.67       6.67       6.66       6.66       6.66       6.66       6.66       6.65       6.65       6.65    
        6.64       6.64       6.63       6.63       6.62       6.62       6.61       6.61       6.60       6.59       6.58    
        6.58       6.57       6.52       6.46       6.40       6.33       6.26       6.18       6.10       6.02       5.94    
        5.85       5.75       5.66       5.58       5.57       5.55       5.54       5.52       5.51       5.49       5.48    
        5.46       5.44       5.43       5.41       5.39       5.38    



                       INITIAL HEAD FOR LAYER  27
 READING ON UNIT  90 WITH FORMAT: (12f12.0)           

           1          2          3          4          5          6          7          8          9         10         11
          12         13         14         15         16         17         18         19         20         21         22
          23         24         25         26         27         28         29         30         31         32         33
          34         35         36         37         38         39         40         41         42         43         44
          45         46         47         48         49         50
 .........................................................................................................................
   1    6.67       6.67       6.67       6.66       6.66       6.66       6.66       6.66       6.65       6.65       6.65    
        6.64       6.64       6.63       6.63       6.62       6.62       6.61       6.61       6.60       6.59       6.58    
        6.58       6.57       6.52       6.46       6.40       6.33       6.26       6.18       6.10       6.02       5.94    
        5.85       5.75       5.66       5.58       5.57       5.55       5.54       5.52       5.51       5.49       5.48    
        5.46       5.44       5.43       5.41       5.39       5.38    

 OUTPUT CONTROL IS SPECIFIED EVERY TIME STEP
 HEAD PRINT FORMAT CODE IS   0    DRAWDOWN PRINT FORMAT CODE IS   0
 HEADS WILL BE SAVED ON UNIT  93    DRAWDOWNS WILL BE SAVED ON UNIT   0

 COLUMN TO ROW ANISOTROPY =   1.000000    

                     DELR =   5.000000    

                     DELC =   5.000000    

    HYD. COND. ALONG ROWS =   157.7000     FOR LAYER   1

                   BOTTOM =   6.500000     FOR LAYER   1

 VERT HYD COND /THICKNESS =   630.7000     FOR LAYER   1

    HYD. COND. ALONG ROWS =   157.7000     FOR LAYER   2

                   BOTTOM =   6.250000     FOR LAYER   2

 VERT HYD COND /THICKNESS =   630.7000     FOR LAYER   2

                      TOP =   6.500000     FOR LAYER   2

    HYD. COND. ALONG ROWS =   157.7000     FOR LAYER   3

                   BOTTOM =   6.000000     FOR LAYER   3

 VERT HYD COND /THICKNESS =   630.7000     FOR LAYER   3

                      TOP =   6.250000     FOR LAYER   3

    HYD. COND. ALONG ROWS =   157.7000     FOR LAYER   4

                   BOTTOM =   5.750000     FOR LAYER   4

 VERT HYD COND /THICKNESS =   630.7000     FOR LAYER   4

                      TOP =   6.000000     FOR LAYER   4

    HYD. COND. ALONG ROWS =   157.7000     FOR LAYER   5

                   BOTTOM =   5.500000     FOR LAYER   5

 VERT HYD COND /THICKNESS =   630.7000     FOR LAYER   5

                      TOP =   5.750000     FOR LAYER   5

    HYD. COND. ALONG ROWS =   157.7000     FOR LAYER   6

                   BOTTOM =   5.250000     FOR LAYER   6

 VERT HYD COND /THICKNESS =   630.7000     FOR LAYER   6

                      TOP =   5.500000     FOR LAYER   6

     TRANSMIS. ALONG ROWS =   39.42000     FOR LAYER   7

 VERT HYD COND /THICKNESS =   630.7000     FOR LAYER   7

     TRANSMIS. ALONG ROWS =   39.42000     FOR LAYER   8

 VERT HYD COND /THICKNESS =   630.7000     FOR LAYER   8

     TRANSMIS. ALONG ROWS =   39.42000     FOR LAYER   9

 VERT HYD COND /THICKNESS =   630.7000     FOR LAYER   9

     TRANSMIS. ALONG ROWS =   39.42000     FOR LAYER  10

 VERT HYD COND /THICKNESS =   630.7000     FOR LAYER  10

     TRANSMIS. ALONG ROWS =   39.42000     FOR LAYER  11



           VERT HYD COND /THICKNESS FOR LAYER  11
 READING ON UNIT  11 WITH FORMAT: (6x,10f11.0)        



               TRANSMIS. ALONG ROWS FOR LAYER  12
 READING ON UNIT  11 WITH FORMAT: (6x,10f11.0)        



           VERT HYD COND /THICKNESS FOR LAYER  12
 READING ON UNIT  11 WITH FORMAT: (6x,10f11.0)        



               TRANSMIS. ALONG ROWS FOR LAYER  13
 READING ON UNIT  11 WITH FORMAT: (6x,10f11.0)        



           VERT HYD COND /THICKNESS FOR LAYER  13
 READING ON UNIT  11 WITH FORMAT: (6x,10f11.0)        



               TRANSMIS. ALONG ROWS FOR LAYER  14
 READING ON UNIT  11 WITH FORMAT: (6x,10f11.0)        



           VERT HYD COND /THICKNESS FOR LAYER  14
 READING ON UNIT  11 WITH FORMAT: (6x,10f11.0)        



               TRANSMIS. ALONG ROWS FOR LAYER  15
 READING ON UNIT  11 WITH FORMAT: (6x,10f11.0)        



           VERT HYD COND /THICKNESS FOR LAYER  15
 READING ON UNIT  11 WITH FORMAT: (6x,10f11.0)        



               TRANSMIS. ALONG ROWS FOR LAYER  16
 READING ON UNIT  11 WITH FORMAT: (6x,10f11.0)        



           VERT HYD COND /THICKNESS FOR LAYER  16
 READING ON UNIT  11 WITH FORMAT: (6x,10f11.0)        



               TRANSMIS. ALONG ROWS FOR LAYER  17
 READING ON UNIT  11 WITH FORMAT: (6x,10f11.0)        



           VERT HYD COND /THICKNESS FOR LAYER  17
 READING ON UNIT  11 WITH FORMAT: (6x,10f11.0)        



               TRANSMIS. ALONG ROWS FOR LAYER  18
 READING ON UNIT  11 WITH FORMAT: (6x,10f11.0)        



           VERT HYD COND /THICKNESS FOR LAYER  18
 READING ON UNIT  11 WITH FORMAT: (6x,10f11.0)        



               TRANSMIS. ALONG ROWS FOR LAYER  19
 READING ON UNIT  11 WITH FORMAT: (6x,10f11.0)        



           VERT HYD COND /THICKNESS FOR LAYER  19
 READING ON UNIT  11 WITH FORMAT: (6x,10f11.0)        

     TRANSMIS. ALONG ROWS =   39.42000     FOR LAYER  20

 VERT HYD COND /THICKNESS =   630.7000     FOR LAYER  20

     TRANSMIS. ALONG ROWS =   39.42000     FOR LAYER  21

 VERT HYD COND /THICKNESS =   630.7000     FOR LAYER  21

     TRANSMIS. ALONG ROWS =   39.42000     FOR LAYER  22

 VERT HYD COND /THICKNESS =   630.7000     FOR LAYER  22

     TRANSMIS. ALONG ROWS =   39.42000     FOR LAYER  23

 VERT HYD COND /THICKNESS =   630.7000     FOR LAYER  23

     TRANSMIS. ALONG ROWS =   39.42000     FOR LAYER  24

 VERT HYD COND /THICKNESS =   630.7000     FOR LAYER  24

     TRANSMIS. ALONG ROWS =   39.42000     FOR LAYER  25

 VERT HYD COND /THICKNESS =   630.7000     FOR LAYER  25

     TRANSMIS. ALONG ROWS =   39.42000     FOR LAYER  26

 VERT HYD COND /THICKNESS =   630.7000     FOR LAYER  26

     TRANSMIS. ALONG ROWS =   39.42000     FOR LAYER  27
0


                                                         SOLUTION BY THE CONJUGATE-GRADIENT METHOD
                                                         -------------------------------------------
0                                      MAXIMUM NUMBER OF CALLS TO PCG ROUTINE =       50
                                           MAXIMUM ITERATIONS PER CALL TO PCG =        5
                                                  MATRIX PRECONDITIONING TYPE =        1
                           RELAXATION FACTOR (ONLY USED WITH PRECOND. TYPE 1) =    0.10000E+01
                    PARAMETER OF POLYMOMIAL PRECOND. = 2 (2) OR IS CALCULATED :        2
                                            HEAD CHANGE CRITERION FOR CLOSURE =    0.10000E-02
                                        RESIDUAL CHANGE CRITERION FOR CLOSURE =    0.10000E+00
                               PCG HEAD AND RESIDUAL CHANGE PRINTOUT INTERVAL =      999
                        PRINTING FROM SOLVER IS LIMITED(1) OR SUPPRESSED (>1) =        0
                                                            DAMPING PARAMETER =    0.10000E+01
1
                            STRESS PERIOD NO.   1, LENGTH =   5.000000    
                            ----------------------------------------------

                              NUMBER OF TIME STEPS =     1

                               MULTIPLIER FOR DELT =     1.000

                            INITIAL TIME STEP SIZE =   5.000000    

                 RECHARGE =  0.1000000    
0
     8 CALLS TO PCG ROUTINE FOR TIME STEP   1 IN STRESS PERIOD  1
    35 TOTAL ITERATIONS
0MAXIMUM HEAD CHANGE FOR EACH ITERATION (1 INDICATES THE FIRST INNER ITERATION):
0    HEAD CHANGE  LAYER,ROW,COL    HEAD CHANGE  LAYER,ROW,COL    HEAD CHANGE  LAYER,ROW,COL    HEAD CHANGE  LAYER,ROW,COL
 ------------------------------------------------------------------------------------------------------------------------
   1  -0.9151E-02 (  9,  1, 16)  0  -0.2415E-01 (  7,  1,  1)  0   0.1748E-01 ( 23,  1,  1)  0   0.1471E-01 ( 20,  1, 21)
   0   0.1166E-02 ( 23,  1,  1)  1   0.3534E-03 (  2,  1, 25)  0   0.9280E-03 (  2,  1, 25)  0   0.1234E-03 ( 20,  1, 19)
   0   0.4643E-03 ( 27,  1,  1)  0   0.9657E-04 ( 26,  1, 16)  1  -0.1889E-03 (  5,  1, 15)  0  -0.4164E-03 ( 11,  1,  1)
   0  -0.5510E-04 (  9,  1, 16)  0  -0.1707E-03 ( 26,  1, 26)  0   0.1321E-03 ( 27,  1,  1)  1   0.4526E-04 ( 20,  1, 15)
   0   0.1628E-03 (  4,  1, 25)  0   0.2370E-04 ( 20,  1, 15)  0   0.8213E-04 ( 27,  1,  1)  0   0.2519E-04 ( 27,  1, 14)
   1  -0.4471E-04 ( 11,  1, 13)  0  -0.7765E-04 ( 11,  1,  1)  0  -0.1209E-04 (  1,  1, 13)  0  -0.3993E-04 ( 25,  1, 26)
   0   0.2654E-04 ( 27,  1,  1)  1   0.1011E-04 ( 19,  1, 13)  0   0.3536E-04 (  6,  1, 25)  0   0.5973E-05 ( 21,  1, 14)
   0   0.1922E-04 ( 27,  1,  1)  0   0.7313E-05 ( 20,  1, 13)  1  -0.1210E-04 ( 11,  1, 13)  0  -0.1832E-04 ( 11,  1,  1)
   0  -0.3513E-05 ( 11,  1, 13)  0  -0.1112E-04 (  1,  1, 25)  1   0.9136E-05 (  7,  1, 25)
0
0MAXIMUM RESIDUAL FOR EACH ITERATION (1 INDICATES THE FIRST INNER ITERATION):
0     RESIDUAL    LAYER,ROW,COL     RESIDUAL    LAYER,ROW,COL     RESIDUAL    LAYER,ROW,COL     RESIDUAL    LAYER,ROW,COL
 ------------------------------------------------------------------------------------------------------------------------
   1   -178.3     ( 13,  1, 37)  0   -77.47     ( 13,  1, 37)  0   -39.06     ( 13,  1, 37)  0   -3.106     ( 13,  1, 37)
   0   -2.212     ( 13,  1, 37)  1   -2.164     ( 13,  1, 37)  0   -2.113     ( 13,  1, 37)  0   -2.083     ( 13,  1, 37)
   0   -1.950     ( 13,  1, 37)  0   -1.905     ( 13,  1, 37)  1   -1.861     ( 13,  1, 37)  0   -1.773     ( 13,  1, 37)
   0   -1.662     ( 13,  1, 37)  0  -0.8891     ( 13,  1, 37)  0  -0.6189     ( 13,  1, 37)  1  -0.6073     ( 13,  1, 37)
   0  -0.5910     ( 13,  1, 37)  0  -0.5841     ( 13,  1, 37)  0  -0.5385     ( 13,  1, 37)  0  -0.5166     ( 13,  1, 37)
   1  -0.5050     ( 13,  1, 37)  0  -0.4849     ( 13,  1, 37)  0  -0.4561     ( 13,  1, 37)  0  -0.2859     ( 13,  1, 37)
   0  -0.1866     ( 13,  1, 37)  1  -0.1836     ( 13,  1, 37)  0  -0.1781     ( 13,  1, 37)  0  -0.1759     ( 13,  1, 37)
   0  -0.1602     ( 13,  1, 37)  0  -0.1512     ( 13,  1, 37)  1  -0.1479     ( 13,  1, 37)  0  -0.1426     ( 13,  1, 37)
   0  -0.1342     ( 13,  1, 37)  0  -0.9240E-01 ( 13,  1, 37)  1  -0.9096E-01 ( 13,  1, 37)
0

 HEAD/DRAWDOWN PRINTOUT FLAG = 1     TOTAL BUDGET PRINTOUT FLAG = 0
 CELL-BY-CELL FLOW TERM FLAG = 0

 OUTPUT FLAGS FOR ALL LAYERS ARE THE SAME:
   HEAD    DRAWDOWN  HEAD  DRAWDOWN
 PRINTOUT  PRINTOUT  SAVE    SAVE
 ----------------------------------
     0         0       1       0

 SATURATED THICKNESS AND FLOW TERMS SAVED ON UNIT 32 FOR MT3D BY LINKMT3D PACKAGE 5.0

 HEAD WILL BE SAVED ON UNIT  93 AT END OF TIME STEP  1, STRESS PERIOD  1
1
  VOLUMETRIC BUDGET FOR ENTIRE MODEL AT END OF TIME STEP  1 IN STRESS PERIOD  1
  -----------------------------------------------------------------------------

     CUMULATIVE VOLUMES      L**3       RATES FOR THIS TIME STEP      L**3/T
     ------------------                 ------------------------

           IN:                                      IN:
           ---                                      ---
       CONSTANT HEAD =           0.0000         CONSTANT HEAD =           0.0000
            RECHARGE =         612.5000              RECHARGE =         122.5000

            TOTAL IN =         612.5000              TOTAL IN =         122.5000

          OUT:                                     OUT:
          ----                                     ----
       CONSTANT HEAD =         612.4955         CONSTANT HEAD =         122.4991
            RECHARGE =           0.0000              RECHARGE =           0.0000

           TOTAL OUT =         612.4955             TOTAL OUT =         122.4991

            IN - OUT =       4.5166E-03              IN - OUT =       9.0027E-04

 PERCENT DISCREPANCY =           0.00     PERCENT DISCREPANCY =           0.00






          TIME SUMMARY AT END OF TIME STEP  1 IN STRESS PERIOD  1
                    SECONDS     MINUTES      HOURS       DAYS        YEARS
                    -----------------------------------------------------------
   TIME STEP LENGTH 1.57788E+08 2.62980E+06  43830.      1826.3      5.0000    
 STRESS PERIOD TIME 1.57788E+08 2.62980E+06  43830.      1826.3      5.0000    
         TOTAL TIME 1.57788E+08 2.62980E+06  43830.      1826.3      5.0000    
1
