                                  MODFLOW-USG      
      U.S. GEOLOGICAL SURVEY MODULAR FINITE-DIFFERENCE GROUNDWATER FLOW MODEL
                            VERSION 1.2.00 03/21/2014

 LIST FILE: flow.list
                         UNIT    2

 OPENING flow.disu
 FILE TYPE:DISU   UNIT   11   STATUS:OLD    
 FORMAT:FORMATTED              ACCESS:SEQUENTIAL          

 OPENING flow.bas
 FILE TYPE:BAS6   UNIT   13   STATUS:OLD    
 FORMAT:FORMATTED              ACCESS:SEQUENTIAL          

 OPENING flow.lpf
 FILE TYPE:LPF   UNIT   15   STATUS:OLD    
 FORMAT:FORMATTED              ACCESS:SEQUENTIAL          

 OPENING flow.oc
 FILE TYPE:OC   UNIT   14   STATUS:OLD    
 FORMAT:FORMATTED              ACCESS:SEQUENTIAL          

 OPENING flow.hds
 FILE TYPE:DATA(BINARY)   UNIT   51   STATUS:REPLACE
 FORMAT:BINARY                 ACCESS:SEQUENTIAL          

 OPENING flow.ddn
 FILE TYPE:DATA(BINARY)   UNIT   52   STATUS:REPLACE
 FORMAT:BINARY                 ACCESS:SEQUENTIAL          

 OPENING flow.cbc
 FILE TYPE:DATA(BINARY)   UNIT   50   STATUS:REPLACE
 FORMAT:BINARY                 ACCESS:SEQUENTIAL          

 OPENING flow.sms
 FILE TYPE:SMS   UNIT   27   STATUS:OLD    
 FORMAT:FORMATTED              ACCESS:SEQUENTIAL          

 BAS -- BASIC PACKAGE-USG      1.2.00 03/21/2014                        INPUT READ FROM UNIT   13
 
 # Basic package file for MODFLOW-USG, generated by Flopy.                       
 THE FREE FORMAT OPTION HAS BEEN SELECTED
 THE UNSTRUCTURED GRID OPTION HAS BEEN SELECTED

 DIS -- UNSTRUCTURED GRID DISCRETIZATION PACKAGE, VERSION 1 : 5/17/2010 - INPUT READ FROM UNIT   11
 # Unstructured discretization file for MODFLOW-USG
        121 NODES         1 NLAY       601 NJAG  VERT. SUBDISCRETIZATION INDEX, IVSD =  0
 INDEX FOR INPUT OF UNSTRUCTURED, FINITE-VOLUME CONNECTIVITY INFORMATION, IDSYMRD =   0
    1 STRESS PERIOD(S) IN SIMULATION
 MODEL TIME UNIT IS DAYS
 MODEL LENGTH UNIT IS METERS
  Confining bed flag for each layer:
   0

 DIS -- UNSTRUCTURED GRID DISCRETIZATION PACKAGE, VERSION 1 : 5/17/2010 - INPUT READ FROM UNIT   11

   NO. OF NODES PER LAYER =       121

                      TOP =   0.00000     FOR LAYER   1

                      BOT = -100.0000     FOR LAYER   1



                               AREA FOR LAYER   1
 READING ON UNIT   11 WITH FORMAT: (5G13.0)            



                                 IA
 READING ON UNIT   11 WITH FORMAT: (5I13)              



                                 JA
 READING ON UNIT   11 WITH FORMAT: (5I13)              



               CONNECTION LENGTH 12 FOR LAYER   1
 READING ON UNIT   11 WITH FORMAT: (5G13.0)            



                 PERPENDICULAR AREA
 READING ON UNIT   11 WITH FORMAT:            (5G13.0) 


 STRESS PERIOD     LENGTH       TIME STEPS     MULTIPLIER FOR DELT    SS FLAG
 ----------------------------------------------------------------------------
        1        1.0000000          1                    1.000         SS

 STEADY-STATE SIMULATION






                     BOUNDARY ARRAY FOR LAYER   1
 READING ON UNIT   13 WITH FORMAT:              (5I10) 

 AQUIFER HEAD WILL BE SET TO  -999.99     AT ALL NO-FLOW NODES (IBOUND=0).



                       INITIAL HEAD FOR LAYER   1
 READING ON UNIT   13 WITH FORMAT:            (5G13.0) 
 # Output control package file for MODFLOW, generated by Flopy.

 OUTPUT CONTROL IS SPECIFIED EVERY TIME STEP
 HEAD PRINT FORMAT CODE IS   2    DRAWDOWN PRINT FORMAT CODE IS   0
 HEADS WILL BE SAVED ON UNIT   51    DRAWDOWNS WILL BE SAVED ON UNIT   52

 LPF -- LAYER-PROPERTY FLOW PACKAGE, VERSION 7, 5/2/2005
         INPUT READ FROM UNIT   15
 CELL-BY-CELL FLOWS WILL BE SAVED ON UNIT   50
 HEAD AT CELLS THAT CONVERT TO DRY= -1.00000E+30
 No named parameters
 IKCFLAG=0, NODAL INPUT OF HY AND CV

   LAYER FLAGS:
 LAYER       LAYTYP        LAYAVG         CHANI        LAYVKA        LAYWET
 ---------------------------------------------------------------------------
    1             0             0     1.000E+00             1             0

   INTERPRETATION OF LAYER FLAGS:
                        INTERBLOCK     HORIZONTAL    DATA IN
         LAYER TYPE   TRANSMISSIVITY   ANISOTROPY   ARRAY VKA   WETTABILITY
 LAYER      (LAYTYP)      (LAYAVG)       (CHANI)      (LAYVKA)      (LAYWET)
 ---------------------------------------------------------------------------
    1      CONFINED      HARMONIC     1.000E+00    ANISOTROPY  NON-WETTABLE

 WETTING CAPABILITY IS NOT ACTIVE IN ANY LAYER

    HYD. COND. ALONG ROWS =  1.000000     FOR LAYER   1

  HORIZ. TO VERTICAL ANI. =  1.000000     FOR LAYER   1

 SMS -- SPARSE MATRIX SOLVER PACKAGE, VERSION 7, 5/2/2005
         INPUT READ FROM UNIT 27
 No named parameters
 ALL SOLVER INPUT DATA WILL BE READ 
FROM THE SOLVER INPUT FILE. 
 OUTER ITERATION CONVERGENCE CRITERION (HCLOSE) =    0.100000E-07
 INNER ITERATION CONVERGENCE CRITERION (HICLOSE) =    0.100000E-07
 MAXIMUM NUMBER OF OUTER ITERATIONS (MXITER)     =       100
 MAXIMUM NUMBER OF INNER ITERATIONS (ITER1)      =       100
 SOLVER PRINTOUT INDEX             (IPRSMS)      =         1
 NONLINEAR ITERATION METHOD    (NONLINMETH)      =         0
 LINEAR SOLUTION METHOD           (LINMETH)      =         1
 ***Picard Linearization will be used***
 
 ***XMD linear solver will be used***
 XMD -- LINEAR SOLUTION BY XMD PACKAGE VERSION 1.30
     BY MOTOMU IBARAKI, OHIO STATE UNIVERSITY, COLOMBUS, OH
                 INPUT READ FROM UNIT 27
 ACCELERATION METHOD                    (IACL) =         2
 EQUATION ORDERING FLAG               (NORDER) =         0
 LEVEL OF FILL                         (LEVEL) =         0
 MAXIMUM NUMBER OF ORTHOGONALIZATIONS  (NORTH) =         7
 INDEX FOR USING REDUCED SYSTEM      (IREDSYS) =         0
 RESID. REDUCTION CONVERGE CRITERION  (RRCTOL) =  0.000000E+00
 INDEX FOR USING DROP TOLERANCE     (IDROPTOL) =         0
 DROP TOLERANCE VALUE                 ((EPSRN) =  0.100000E-02
 
1
                            STRESS PERIOD NO.    1, LENGTH =  1.0000000    
                            -----------------------------------------------

                              NUMBER OF TIME STEPS =     1

                               MULTIPLIER FOR DELT =     1.000

                            INITIAL TIME STEP SIZE =  1.0000000    
 
 SOLVING FOR HEAD 

 Outer-Iteration  Inner-Iteration    Maximum Head Change  Maximum Head Change
     Number           Count               Value              Location
        1               13               0.83241                     2           GWF-node number
        2                1               0.61141E-10               117           GWF-node number


     2 CALLS TO SPARSE MATRIX SOLVER PACKAGE  IN FLOW TIME STEP   1 STRESS PERIOD   1

 TOTAL OF       2OUTER ITERATIONS
  MAXIMUM CHANGE FOR EACH ITERATION:
   MAX. CHANGE        NODE  MAX. CHANGE        NODE  MAX. CHANGE        NODE  MAX. CHANGE        NODE  MAX. CHANGE        NODE
 ------------------------------------------------------------------------------------------------------------------------------------
   0.83241    ,          2  0.61141E-10,        117

 HEAD/DRAWDOWN PRINTOUT FLAG = 1     TOTAL BUDGET PRINTOUT FLAG = 0
 CELL-BY-CELL FLOW TERM FLAG = 1

 OUTPUT FLAGS FOR ALL LAYERS ARE THE SAME:
   HEAD    DRAWDOWN  HEAD  DRAWDOWN
 PRINTOUT  PRINTOUT  SAVE    SAVE
 ----------------------------------
     1         0       1       0
 UBUDSVU SAVING "   CONSTANT HEAD" ON UNIT  50 AT TIME STEP      1, STRESS PERIOD      1
 UBUDSVU SAVING "   FLOW JA FACE " ON UNIT  50 AT TIME STEP      1, STRESS PERIOD      1
1
             HEADU IN LAYER       1 AT END OF TIME STEP       1 IN STRESS PERIOD       1 STRESS TIME   1.000000     TOTAL TIME   1.000000    
  -----------------------------------------------------------------------------------------------------------------------------------------
        1..   1.000000      0.832406      0.665620      0.500000      0.334380      0.167594     -3.351887E-19  1.000000      0.831597    
       10..   0.664454      0.500000      0.335546      0.168403     -3.368056E-19  1.000000      0.829529      0.170471     -3.409415E-19
       19..   1.000000      0.830579      0.169421     -3.388413E-19  1.000000      0.829529      0.170471     -3.409415E-19  1.000000    
       28..   0.831597      0.664454      0.500000      0.335546      0.168403     -3.368056E-19  1.000000      0.832406      0.665620    
       37..   0.500000      0.334380      0.167594     -3.351887E-19  0.708230      0.662372      0.615048      0.548033      0.500000    
       46..   0.451967      0.384952      0.337628      0.291770      0.715327      0.662797      0.610036      0.553067      0.500000    
       55..   0.446933      0.389964      0.337203      0.284673      0.717853      0.663453      0.609231      0.554200      0.500000    
       64..   0.445800      0.390769      0.336547      0.282147      0.718940      0.663930      0.609237      0.554502      0.500000    
       73..   0.445498      0.390763      0.336070      0.281060      0.719217      0.664090      0.609284      0.554572      0.500000    
       82..   0.445428      0.390716      0.335910      0.280783      0.718940      0.663930      0.609237      0.554502      0.500000    
       91..   0.445498      0.390763      0.336070      0.281060      0.717853      0.663453      0.609231      0.554200      0.500000    
      100..   0.445800      0.390769      0.336547      0.282147      0.715327      0.662797      0.610036      0.553067      0.500000    
      109..   0.446933      0.389964      0.337203      0.284673      0.708230      0.662372      0.615048      0.548033      0.500000    
      118..   0.451967      0.384952      0.337628      0.291770    

 HEAD WILL BE SAVED ON UNIT   51 AT END OF TIME STEP   1, STRESS PERIOD    1
1
  VOLUMETRIC BUDGET FOR ENTIRE MODEL AT END OF TIME STEP       1 IN STRESS PERIOD       1
  ---------------------------------------------------------------------------------------

     CUMULATIVE VOLUMES      L**3       RATES FOR THIS TIME STEP      L**3/T
     ------------------                 ------------------------

           IN:                                      IN:
           ---                                      ---
             STORAGE =           0.0000               STORAGE =           0.0000
       CONSTANT HEAD =         118.2356         CONSTANT HEAD =         118.2356

            TOTAL IN =         118.2356              TOTAL IN =         118.2356

          OUT:                                     OUT:
          ----                                     ----
             STORAGE =           0.0000               STORAGE =           0.0000
       CONSTANT HEAD =         118.2356         CONSTANT HEAD =         118.2356

           TOTAL OUT =         118.2356             TOTAL OUT =         118.2356

            IN - OUT =           0.0000              IN - OUT =           0.0000

 PERCENT DISCREPANCY =           0.00     PERCENT DISCREPANCY =           0.00






          TIME SUMMARY AT END OF TIME STEP         1 IN STRESS PERIOD         1
                    SECONDS     MINUTES      HOURS       DAYS        YEARS
                    -----------------------------------------------------------
   TIME STEP LENGTH  86400.      1440.0      24.000     1.00000     2.73785E-03
 STRESS PERIOD TIME  86400.      1440.0      24.000     1.00000     2.73785E-03
         TOTAL TIME  86400.      1440.0      24.000     1.00000     2.73785E-03
1

 Run end date and time (yyyy/mm/dd hh:mm:ss): 2014/03/20 12:35:40
 Elapsed run time:  0.098 Seconds

