                             MODFLOW 6 PROFESSIONAL
                U.S. GEOLOGICAL SURVEY MODULAR HYDROLOGIC MODEL
                  VERSION 6.5.0.dev0 (preliminary) 07/13/2023
                               ***DEVELOP MODE***

        MODFLOW 6 compiled Oct 30 2023 08:23:02 with GCC version 11.3.0

This software is preliminary or provisional and is subject to 
revision. It is being provided to meet the need for timely best 
science. The software has not received final approval by the U.S. 
Geological Survey (USGS). No warranty, expressed or implied, is made 
by the USGS or the U.S. Government as to the functionality of the 
software and related material nor shall the fact of release 
constitute any such warranty. The software is provided on the 
condition that neither the USGS nor the U.S. Government shall be held 
liable for any damages resulting from the authorized or unauthorized 
use of the software.


As a work of the United States Government, this USGS product is 
in the public domain within the United States. You can copy, 
modify, distribute, and perform the work, even for commercial 
purposes, all without asking permission. Additionally, USGS 
waives copyright and related rights in the work worldwide 
through CC0 1.0 Universal Public Domain Dedication 
(https://creativecommons.org/publicdomain/zero/1.0/).

The following GNU Lesser General Public License (LGPL) libraries
are used in this USGS product:

    SPARSKIT version 2.0
      ilut, luson, and qsplit 
      (https://www-users.cse.umn.edu/~saad/software/SPARSKIT/)

    RCM - Reverse Cuthill McKee Ordering
      (https://people.math.sc.edu/Burkardt/f_src/rcm/rcm.html)

    BLAS - Basic Linear Algebra Subprograms Level 1
      (https://people.math.sc.edu/Burkardt/f_src/blas1_d/blas1_d.html)

    SPARSEKIT - Sparse Matrix Utility Package
      amux, dperm, dvperm, rperm, and cperm
      (https://people.sc.fsu.edu/~jburkardt/f77_src/sparsekit/sparsekit.html)

The following BSD-3 License libraries are used in this USGS product:

    Modern Fortran DAG Library
      Copyright (c) 2018, Jacob Williams
      All rights reserved.
      (https://github.com/jacobwilliams/daglib)

The following 2-clause BSD License library is used in this
USGS product:

    PETSc, the Portable, Extensible Toolkit for Scientific
    Computation Library
      Copyright (c) 1991-2021, UChicago Argonne, LLC
      and the PETSc Development Team All rights reserved.
      (https://petsc.org/release/)

MODFLOW 6 compiler options: -cpp -I src/libmf6core.a.p -I src -I ../src -I
src/libmf6_external.a.p -I
/home/mreno/.clone/external/petsc/arch-linux-c-debug/include -I
/home/mreno/.clone/external/petsc/include -I
/home/mreno/.clone/external/petsc/arch-linux-c-debug/lib -I
/home/mreno/miniconda3/envs/modflow6/include -I -fdiagnostics-color=always
-imultiarch x86_64-linux-gnu -D _FILE_OFFSET_BITS=64 -D __linux__ -D
__WITH_PETSC__ -D __WITH_MPI__ -D __WITH_NETCDF__ -mtune=generic
-march=x86-64 -g -O2 -Wall -Wpedantic -Wcharacter-truncation
-Wno-unused-dummy-argument -Wno-intrinsic-shadow -Wno-maybe-uninitialized
-Wno-uninitialized -std=f2008 -fall-intrinsics -fbacktrace -fcheck=all
-ffpe-trap=overflow,zero,invalid -ffpe-summary=overflow
-ffpe-trap=overflow,zero,invalid -fPIC -J src/libmf6core.a.p
-fpre-include=/usr/include/finclude/math-vector-fortran.h

System command used to initiate simulation:
/home/mreno/.clone/usgs/w/netcdf/2/modflow6/bin/mf6

MODFLOW was compiled using uniform precision.

Real Variables
  KIND: 8
  TINY (smallest non-zero value):    2.225074-308
  HUGE (largest value):    1.797693+308
  PRECISION: 15
  SIZE IN BITS: 64

Integer Variables
  KIND: 4
  HUGE (largest value): 2147483647
  SIZE IN BITS: 32

Long Integer Variables
  KIND: 8
  HUGE (largest value): 9223372036854775807
  SIZE IN BITS: 64

Logical Variables
  KIND: 4
  SIZE IN BITS: 32


 OPENED mfsim.nam
 FILE TYPE:NAM6      UNIT 1001   STATUS:OLD                 
 FORMAT:FORMATTED              ACCESS:SEQUENTIAL          
 ACTION:READ                

 # File generated by Flopy version 3.5.0.dev0 on 10/30/2023 at 09:14:14.

 OPENED gwf_mst03.nam
 FILE TYPE:GWF6      UNIT 1002   STATUS:OLD                 
 FORMAT:FORMATTED              ACCESS:SEQUENTIAL          
 ACTION:READ                

 # File generated by Flopy version 3.5.0.dev0 on 10/30/2023 at 09:14:14.
Model NetCDF4 Input "gwf_mst03.nc" opened NF90_NOWRITE, ncid=65536
IDM nc modeltype=GWF6
IDM load netcdf var model=GWF6, ptype=DIS6
IDM nc4_context pkg cname=GWF_MST03, scname=DIS
IDM load nc model ctype=GWF
IDM load netcdf var model=GWF6, ptype=DIS6, sctype=DIS
Input parameter "NLAY" discovered for package "GWF_MST03/DIS".
IDM load netcdf var model=GWF6, ptype=DIS6
IDM nc4_context pkg cname=GWF_MST03, scname=DIS
IDM load nc model ctype=GWF
IDM load netcdf var model=GWF6, ptype=DIS6, sctype=DIS
Input parameter "NROW" discovered for package "GWF_MST03/DIS".
IDM load netcdf var model=GWF6, ptype=DIS6
IDM nc4_context pkg cname=GWF_MST03, scname=DIS
IDM load nc model ctype=GWF
IDM load netcdf var model=GWF6, ptype=DIS6, sctype=DIS
Input parameter "NCOL" discovered for package "GWF_MST03/DIS".
IDM load netcdf var model=GWF6, ptype=DIS6
IDM nc4_context pkg cname=GWF_MST03, scname=DIS
IDM load nc model ctype=GWF
IDM load netcdf var model=GWF6, ptype=DIS6, sctype=DIS
Input parameter "DELR" discovered for package "GWF_MST03/DIS".
IDM load netcdf var model=GWF6, ptype=DIS6
IDM nc4_context pkg cname=GWF_MST03, scname=DIS
IDM load nc model ctype=GWF
IDM load netcdf var model=GWF6, ptype=DIS6, sctype=DIS
Input parameter "DELC" discovered for package "GWF_MST03/DIS".
IDM load netcdf var model=GWF6, ptype=DIS6
IDM nc4_context pkg cname=GWF_MST03, scname=DIS
IDM load nc model ctype=GWF
IDM load netcdf var model=GWF6, ptype=DIS6, sctype=DIS
Input parameter "TOP" discovered for package "GWF_MST03/DIS".
IDM load netcdf var model=GWF6, ptype=DIS6
IDM nc4_context pkg cname=GWF_MST03, scname=DIS
IDM load nc model ctype=GWF
IDM load netcdf var model=GWF6, ptype=DIS6, sctype=DIS
Input parameter "BOTM" discovered for package "GWF_MST03/DIS".
IDM load netcdf var model=GWF6, ptype=DIS6
IDM nc4_context pkg cname=GWF_MST03, scname=DIS
IDM load nc model ctype=GWF
IDM load netcdf var model=GWF6, ptype=DIS6, sctype=DIS
Input parameter "IDOMAIN" discovered for package "GWF_MST03/DIS".
IDM load netcdf var model=GWF6, ptype=NPF6
IDM nc4_context pkg cname=GWF_MST03, scname=DIS
IDM nc4_context pkg cname=GWF_MST03, scname=NPF
IDM load nc model ctype=GWF
IDM load netcdf var model=GWF6, ptype=NPF6, sctype=NPF
Input parameter "SAVE_FLOWS" discovered for package "GWF_MST03/NPF".
IDM load netcdf var model=GWF6, ptype=NPF6
IDM nc4_context pkg cname=GWF_MST03, scname=DIS
IDM nc4_context pkg cname=GWF_MST03, scname=NPF
IDM load nc model ctype=GWF
IDM load netcdf var model=GWF6, ptype=NPF6, sctype=NPF
Input parameter "ICELLTYPE" discovered for package "GWF_MST03/NPF".
IDM load netcdf var model=GWF6, ptype=NPF6
IDM nc4_context pkg cname=GWF_MST03, scname=DIS
IDM nc4_context pkg cname=GWF_MST03, scname=NPF
IDM load nc model ctype=GWF
IDM load netcdf var model=GWF6, ptype=NPF6, sctype=NPF
Input parameter "K" discovered for package "GWF_MST03/NPF".
IDM load netcdf var model=GWF6, ptype=NPF6
IDM nc4_context pkg cname=GWF_MST03, scname=DIS
IDM nc4_context pkg cname=GWF_MST03, scname=NPF
IDM load nc model ctype=GWF
IDM load netcdf var model=GWF6, ptype=NPF6, sctype=NPF
Input parameter "K33" discovered for package "GWF_MST03/NPF".
IDM load netcdf var model=GWF6, ptype=WEL6
IDM nc4_context pkg cname=GWF_MST03, scname=DIS
IDM nc4_context pkg cname=GWF_MST03, scname=NPF
IDM nc4_context pkg cname=GWF_MST03, scname=WEL-1
IDM load nc model ctype=GWF
IDM load netcdf var model=GWF6, ptype=WEL6, sctype=WEL
Input parameter "AUXILIARY" discovered for package "GWF_MST03/WEL-1".
IDM load netcdf var model=GWF6, ptype=WEL6
IDM nc4_context pkg cname=GWF_MST03, scname=DIS
IDM nc4_context pkg cname=GWF_MST03, scname=NPF
IDM nc4_context pkg cname=GWF_MST03, scname=WEL-1
IDM load nc model ctype=GWF
IDM load netcdf var model=GWF6, ptype=WEL6, sctype=WEL
Input parameter "PRINT_INPUT" discovered for package "GWF_MST03/WEL-1".
IDM load netcdf var model=GWF6, ptype=WEL6
IDM nc4_context pkg cname=GWF_MST03, scname=DIS
IDM nc4_context pkg cname=GWF_MST03, scname=NPF
IDM nc4_context pkg cname=GWF_MST03, scname=WEL-1
IDM load nc model ctype=GWF
IDM load netcdf var model=GWF6, ptype=WEL6, sctype=WEL
Input parameter "PRINT_FLOWS" discovered for package "GWF_MST03/WEL-1".
IDM load netcdf var model=GWF6, ptype=WEL6
IDM nc4_context pkg cname=GWF_MST03, scname=DIS
IDM nc4_context pkg cname=GWF_MST03, scname=NPF
IDM nc4_context pkg cname=GWF_MST03, scname=WEL-1
IDM load nc model ctype=GWF
IDM load netcdf var model=GWF6, ptype=WEL6, sctype=WEL
Input parameter "SAVE_FLOWS" discovered for package "GWF_MST03/WEL-1".
IDM load netcdf var model=GWF6, ptype=WEL6
IDM nc4_context pkg cname=GWF_MST03, scname=DIS
IDM nc4_context pkg cname=GWF_MST03, scname=NPF
IDM nc4_context pkg cname=GWF_MST03, scname=WEL-1
IDM load nc model ctype=GWF
IDM load netcdf var model=GWF6, ptype=WEL6, sctype=WEL
Input parameter "MAXBOUND" discovered for package "GWF_MST03/WEL-1".
IDM load netcdf var model=GWF6, ptype=WEL6
IDM nc4_context pkg cname=GWF_MST03, scname=DIS
IDM nc4_context pkg cname=GWF_MST03, scname=NPF
IDM nc4_context pkg cname=GWF_MST03, scname=WEL-1
IDM load nc model ctype=GWF
IDM load netcdf var model=GWF6, ptype=WEL6
IDM nc4_context pkg cname=GWF_MST03, scname=DIS
IDM nc4_context pkg cname=GWF_MST03, scname=NPF
IDM nc4_context pkg cname=GWF_MST03, scname=WEL-1
IDM load nc model ctype=GWF
IDM load netcdf var model=GWF6, ptype=WEL6, sctype=WEL
Input parameter "CELLID" discovered for package "GWF_MST03/WEL-1".
IDM load netcdf var model=GWF6, ptype=WEL6
IDM nc4_context pkg cname=GWF_MST03, scname=DIS
IDM nc4_context pkg cname=GWF_MST03, scname=NPF
IDM nc4_context pkg cname=GWF_MST03, scname=WEL-1
IDM load nc model ctype=GWF
IDM load netcdf var model=GWF6, ptype=WEL6, sctype=WEL
Input parameter "Q" discovered for package "GWF_MST03/WEL-1".
IDM load netcdf var model=GWF6, ptype=WEL6
IDM nc4_context pkg cname=GWF_MST03, scname=DIS
IDM nc4_context pkg cname=GWF_MST03, scname=NPF
IDM nc4_context pkg cname=GWF_MST03, scname=WEL-1
IDM load nc model ctype=GWF
IDM load netcdf var model=GWF6, ptype=WEL6, sctype=WEL
Input parameter "AUX" discovered for package "GWF_MST03/WEL-1".
IDM input_load pkg=DIS
IDM NF90_MAX_DIMS=1024
IDM NF90_MAX_VAR_DIMS=1024
varname=NLAY, type=INTEGER
varname=NROW, type=INTEGER
varname=NCOL, type=INTEGER
varname=DELR, type=DOUBLE1D
varname=DELC, type=DOUBLE1D
varname=TOP, type=DOUBLE2D
varname=BOTM, type=DOUBLE3D
varname=IDOMAIN, type=INTEGER3D
    ALL SIMULATION MEMORY INFORMATION WILL BE WRITTEN.

 DETAILED INFORMATION ON VARIABLES STORED IN THE MEMORY MANAGER
 -----------------------------------------------------------------------------------------------------------------------------------------------------------------------------
 ORIGIN                                             VARIABLE NAME    DATA TYPE             NUMBER OF ITEMS ASSOCIATED VARIABLE                                                
 -----------------------------------------------------------------------------------------------------------------------------------------------------------------------------
 __INPUT__/SIM/NAM                                  TDIS6            STRING LEN=300                      1 --                                                                 
 __INPUT__/SIM/NAM                                  MTYPE            STRING LEN=300                      2 --                                                                 
 __INPUT__/SIM/NAM                                  MFNAME           STRING LEN=300                      2 --                                                                 
 __INPUT__/SIM/NAM                                  MNAME            STRING LEN=300                      2 --                                                                 
 __INPUT__/SIM/NAM                                  EXGTYPE          STRING LEN=300                      1 --                                                                 
 __INPUT__/SIM/NAM                                  EXGFILE          STRING LEN=300                      1 --                                                                 
 __INPUT__/SIM/NAM                                  EXGMNAMEA        STRING LEN=300                      1 --                                                                 
 __INPUT__/SIM/NAM                                  EXGMNAMEB        STRING LEN=300                      1 --                                                                 
 __INPUT__/SIM/NAM                                  SOLUTIONGROUPNUM INTEGER                             2 --                                                                 
 __INPUT__/SIM/NAM                                  SLNTYPE          STRING LEN=300                      2 --                                                                 
 __INPUT__/SIM/NAM                                  SLNFNAME         STRING LEN=300                      2 --                                                                 
 __INPUT__/SIM/NAM                                  SLNMNAMES        STRING LEN=300                      2 --                                                                 
 __INPUT__/SIM/NAM                                  CONTINUE         INTEGER                             1 --                                                                 
 __INPUT__/SIM/NAM                                  NOCHECK          INTEGER                             1 --                                                                 
 __INPUT__/SIM/NAM                                  PRMEM            STRING LEN=300                      1 --                                                                 
 __INPUT__/SIM/NAM                                  MAXERRORS        INTEGER                             1 --                                                                 
 __INPUT__/SIM/NAM                                  PRINT_INPUT      INTEGER                             1 --                                                                 
 __INPUT__/SIM/NAM                                  MXITER           INTEGER                             1 --                                                                 
 __INPUT__/SIM                                      NUMMODELS        INTEGER                             1 --                                                                 
 __INPUT__/SIM                                      NUMEXCHANGES     INTEGER                             1 --                                                                 
 __INPUT__/GWF_MST03/NAM                            NEWTON           INTEGER                             1 --                                                                 
 __INPUT__/GWF_MST03/NAM                            UNDER_RELAXATION INTEGER                             1 --                                                                 
 __INPUT__/GWF_MST03/NAM                            FTYPE            STRING LEN=300                      6 --                                                                 
 __INPUT__/GWF_MST03/NAM                            FNAME            STRING LEN=300                      6 --                                                                 
 __INPUT__/GWF_MST03/NAM                            PNAME            STRING LEN=300                      6 --                                                                 
 __INPUT__/GWF_MST03                                PKGTYPES         STRING LEN=7                        0 --                                                                 
 __INPUT__/GWF_MST03                                PKGNAMES         STRING LEN=16                       0 --                                                                 
 __INPUT__/GWF_MST03                                MEMPATHS         STRING LEN=50                       0 --                                                                 
 __INPUT__/GWF_MST03                                INUNITS          INTEGER                             0 --                                                                 
 __INPUT__/GWF_MST03/DIS                            INPUT_FNAME      STRING LEN=300                      1 --                                                                 
 __INPUT__/GWF_MST03/NPF                            INPUT_FNAME      STRING LEN=300                      1 --                                                                 
 __INPUT__/GWF_MST03/WEL-1                          INPUT_FNAME      STRING LEN=300                      1 --                                                                 
 __INPUT__/GWF_MST03/DIS                            NLAY             INTEGER                             1 --                                                                 
 __INPUT__/GWF_MST03/DIS                            NROW             INTEGER                             1 --                                                                 
 __INPUT__/GWF_MST03/DIS                            NCOL             INTEGER                             1 --                                                                 
 __INPUT__/GWF_MST03                                MODEL_SHAPE      INTEGER                             3 --                                                                 
 __INPUT__/GWF_MST03                                NCELLDIM         INTEGER                             1 --                                                                 
 __INPUT__/GWF_MST03/DIS                            DELR             DOUBLE                              1 --                                                                 
 __INPUT__/GWF_MST03/DIS                            DELC             DOUBLE                              1 --                                                                 
 __INPUT__/GWF_MST03/DIS                            TOP              DOUBLE                              1 --                                                                 
 __INPUT__/GWF_MST03/DIS                            BOTM             DOUBLE                              1 --                                                                 
 __INPUT__/GWF_MST03/DIS                            IDOMAIN          INTEGER                             1 --                                                                 
 -----------------------------------------------------------------------------------------------------------------------------------------------------------------------------



 MEMORY MANAGER TOTAL STORAGE BY DATA TYPE, IN KILOBYTES
 -------------------------------
                    ALLOCATED   
 DATA TYPE           MEMORY     
 -------------------------------
 Character        1.5340000     
 Logical          0.0000000     
 Integer          7.60000000E-02
 Real             3.20000000E-02
 -------------------------------
 Total            1.6420000     
 Virtual          0.0000000     
 -------------------------------


IDM input_load pkg=NPF
IDM NF90_MAX_DIMS=1024
IDM NF90_MAX_VAR_DIMS=1024
varname=IPAKCB, type=KEYWORD
varname=ICELLTYPE, type=INTEGER1D
varname=K, type=DOUBLE1D
varname=K33, type=DOUBLE1D
    ALL SIMULATION MEMORY INFORMATION WILL BE WRITTEN.

 DETAILED INFORMATION ON VARIABLES STORED IN THE MEMORY MANAGER
 -----------------------------------------------------------------------------------------------------------------------------------------------------------------------------
 ORIGIN                                             VARIABLE NAME    DATA TYPE             NUMBER OF ITEMS ASSOCIATED VARIABLE                                                
 -----------------------------------------------------------------------------------------------------------------------------------------------------------------------------
 __INPUT__/SIM/NAM                                  TDIS6            STRING LEN=300                      1 --                                                                 
 __INPUT__/SIM/NAM                                  MTYPE            STRING LEN=300                      2 --                                                                 
 __INPUT__/SIM/NAM                                  MFNAME           STRING LEN=300                      2 --                                                                 
 __INPUT__/SIM/NAM                                  MNAME            STRING LEN=300                      2 --                                                                 
 __INPUT__/SIM/NAM                                  EXGTYPE          STRING LEN=300                      1 --                                                                 
 __INPUT__/SIM/NAM                                  EXGFILE          STRING LEN=300                      1 --                                                                 
 __INPUT__/SIM/NAM                                  EXGMNAMEA        STRING LEN=300                      1 --                                                                 
 __INPUT__/SIM/NAM                                  EXGMNAMEB        STRING LEN=300                      1 --                                                                 
 __INPUT__/SIM/NAM                                  SOLUTIONGROUPNUM INTEGER                             2 --                                                                 
 __INPUT__/SIM/NAM                                  SLNTYPE          STRING LEN=300                      2 --                                                                 
 __INPUT__/SIM/NAM                                  SLNFNAME         STRING LEN=300                      2 --                                                                 
 __INPUT__/SIM/NAM                                  SLNMNAMES        STRING LEN=300                      2 --                                                                 
 __INPUT__/SIM/NAM                                  CONTINUE         INTEGER                             1 --                                                                 
 __INPUT__/SIM/NAM                                  NOCHECK          INTEGER                             1 --                                                                 
 __INPUT__/SIM/NAM                                  PRMEM            STRING LEN=300                      1 --                                                                 
 __INPUT__/SIM/NAM                                  MAXERRORS        INTEGER                             1 --                                                                 
 __INPUT__/SIM/NAM                                  PRINT_INPUT      INTEGER                             1 --                                                                 
 __INPUT__/SIM/NAM                                  MXITER           INTEGER                             1 --                                                                 
 __INPUT__/SIM                                      NUMMODELS        INTEGER                             1 --                                                                 
 __INPUT__/SIM                                      NUMEXCHANGES     INTEGER                             1 --                                                                 
 __INPUT__/GWF_MST03/NAM                            NEWTON           INTEGER                             1 --                                                                 
 __INPUT__/GWF_MST03/NAM                            UNDER_RELAXATION INTEGER                             1 --                                                                 
 __INPUT__/GWF_MST03/NAM                            FTYPE            STRING LEN=300                      6 --                                                                 
 __INPUT__/GWF_MST03/NAM                            FNAME            STRING LEN=300                      6 --                                                                 
 __INPUT__/GWF_MST03/NAM                            PNAME            STRING LEN=300                      6 --                                                                 
 __INPUT__/GWF_MST03                                PKGTYPES         STRING LEN=7                        0 --                                                                 
 __INPUT__/GWF_MST03                                PKGNAMES         STRING LEN=16                       0 --                                                                 
 __INPUT__/GWF_MST03                                MEMPATHS         STRING LEN=50                       0 --                                                                 
 __INPUT__/GWF_MST03                                INUNITS          INTEGER                             0 --                                                                 
 __INPUT__/GWF_MST03/DIS                            INPUT_FNAME      STRING LEN=300                      1 --                                                                 
 __INPUT__/GWF_MST03/NPF                            INPUT_FNAME      STRING LEN=300                      1 --                                                                 
 __INPUT__/GWF_MST03/WEL-1                          INPUT_FNAME      STRING LEN=300                      1 --                                                                 
 __INPUT__/GWF_MST03/DIS                            NLAY             INTEGER                             1 --                                                                 
 __INPUT__/GWF_MST03/DIS                            NROW             INTEGER                             1 --                                                                 
 __INPUT__/GWF_MST03/DIS                            NCOL             INTEGER                             1 --                                                                 
 __INPUT__/GWF_MST03                                MODEL_SHAPE      INTEGER                             3 --                                                                 
 __INPUT__/GWF_MST03                                NCELLDIM         INTEGER                             1 --                                                                 
 __INPUT__/GWF_MST03/DIS                            DELR             DOUBLE                              1 --                                                                 
 __INPUT__/GWF_MST03/DIS                            DELC             DOUBLE                              1 --                                                                 
 __INPUT__/GWF_MST03/DIS                            TOP              DOUBLE                              1 --                                                                 
 __INPUT__/GWF_MST03/DIS                            BOTM             DOUBLE                              1 --                                                                 
 __INPUT__/GWF_MST03/DIS                            IDOMAIN          INTEGER                             1 --                                                                 
 __INPUT__/GWF_MST03/NPF                            IPAKCB           INTEGER                             1 --                                                                 
 __INPUT__/GWF_MST03/NPF                            ICELLTYPE        INTEGER                             1 --                                                                 
 __INPUT__/GWF_MST03/NPF                            K                DOUBLE                              1 --                                                                 
 __INPUT__/GWF_MST03/NPF                            K33              DOUBLE                              1 --                                                                 
 -----------------------------------------------------------------------------------------------------------------------------------------------------------------------------



 MEMORY MANAGER TOTAL STORAGE BY DATA TYPE, IN KILOBYTES
 -------------------------------
                    ALLOCATED   
 DATA TYPE           MEMORY     
 -------------------------------
 Character        1.5340000     
 Logical          0.0000000     
 Integer          8.40000000E-02
 Real             4.80000000E-02
 -------------------------------
 Total            1.6660000     
 Virtual          0.0000000     
 -------------------------------



 OPENED gwf_mst03.sto
 FILE TYPE:STO6      UNIT 1003   STATUS:OLD                 
 FORMAT:FORMATTED              ACCESS:SEQUENTIAL          
 ACTION:READ                


 OPENED gwf_mst03.ic
 FILE TYPE:IC6       UNIT 1004   STATUS:OLD                 
 FORMAT:FORMATTED              ACCESS:SEQUENTIAL          
 ACTION:READ                


 OPENED gwf_mst03.oc
 FILE TYPE:OC6       UNIT 1005   STATUS:OLD                 
 FORMAT:FORMATTED              ACCESS:SEQUENTIAL          
 ACTION:READ                

IDM input_load pkg=WEL-1
IDM NF90_MAX_DIMS=1024
IDM NF90_MAX_VAR_DIMS=1024
varname=AUXILIARY, type=STRING
varname=IPRPAK, type=KEYWORD
varname=IPRFLOW, type=KEYWORD
varname=IPAKCB, type=KEYWORD
varname=MAXBOUND, type=INTEGER
    ALL SIMULATION MEMORY INFORMATION WILL BE WRITTEN.

 DETAILED INFORMATION ON VARIABLES STORED IN THE MEMORY MANAGER
 -----------------------------------------------------------------------------------------------------------------------------------------------------------------------------
 ORIGIN                                             VARIABLE NAME    DATA TYPE             NUMBER OF ITEMS ASSOCIATED VARIABLE                                                
 -----------------------------------------------------------------------------------------------------------------------------------------------------------------------------
 __INPUT__/SIM/NAM                                  TDIS6            STRING LEN=300                      1 --                                                                 
 __INPUT__/SIM/NAM                                  MTYPE            STRING LEN=300                      2 --                                                                 
 __INPUT__/SIM/NAM                                  MFNAME           STRING LEN=300                      2 --                                                                 
 __INPUT__/SIM/NAM                                  MNAME            STRING LEN=300                      2 --                                                                 
 __INPUT__/SIM/NAM                                  EXGTYPE          STRING LEN=300                      1 --                                                                 
 __INPUT__/SIM/NAM                                  EXGFILE          STRING LEN=300                      1 --                                                                 
 __INPUT__/SIM/NAM                                  EXGMNAMEA        STRING LEN=300                      1 --                                                                 
 __INPUT__/SIM/NAM                                  EXGMNAMEB        STRING LEN=300                      1 --                                                                 
 __INPUT__/SIM/NAM                                  SOLUTIONGROUPNUM INTEGER                             2 --                                                                 
 __INPUT__/SIM/NAM                                  SLNTYPE          STRING LEN=300                      2 --                                                                 
 __INPUT__/SIM/NAM                                  SLNFNAME         STRING LEN=300                      2 --                                                                 
 __INPUT__/SIM/NAM                                  SLNMNAMES        STRING LEN=300                      2 --                                                                 
 __INPUT__/SIM/NAM                                  CONTINUE         INTEGER                             1 --                                                                 
 __INPUT__/SIM/NAM                                  NOCHECK          INTEGER                             1 --                                                                 
 __INPUT__/SIM/NAM                                  PRMEM            STRING LEN=300                      1 --                                                                 
 __INPUT__/SIM/NAM                                  MAXERRORS        INTEGER                             1 --                                                                 
 __INPUT__/SIM/NAM                                  PRINT_INPUT      INTEGER                             1 --                                                                 
 __INPUT__/SIM/NAM                                  MXITER           INTEGER                             1 --                                                                 
 __INPUT__/SIM                                      NUMMODELS        INTEGER                             1 --                                                                 
 __INPUT__/SIM                                      NUMEXCHANGES     INTEGER                             1 --                                                                 
 __INPUT__/GWF_MST03/NAM                            NEWTON           INTEGER                             1 --                                                                 
 __INPUT__/GWF_MST03/NAM                            UNDER_RELAXATION INTEGER                             1 --                                                                 
 __INPUT__/GWF_MST03/NAM                            FTYPE            STRING LEN=300                      6 --                                                                 
 __INPUT__/GWF_MST03/NAM                            FNAME            STRING LEN=300                      6 --                                                                 
 __INPUT__/GWF_MST03/NAM                            PNAME            STRING LEN=300                      6 --                                                                 
 __INPUT__/GWF_MST03                                PKGTYPES         STRING LEN=7                        0 --                                                                 
 __INPUT__/GWF_MST03                                PKGNAMES         STRING LEN=16                       0 --                                                                 
 __INPUT__/GWF_MST03                                MEMPATHS         STRING LEN=50                       0 --                                                                 
 __INPUT__/GWF_MST03                                INUNITS          INTEGER                             0 --                                                                 
 __INPUT__/GWF_MST03/DIS                            INPUT_FNAME      STRING LEN=300                      1 --                                                                 
 __INPUT__/GWF_MST03/NPF                            INPUT_FNAME      STRING LEN=300                      1 --                                                                 
 __INPUT__/GWF_MST03/WEL-1                          INPUT_FNAME      STRING LEN=300                      1 --                                                                 
 __INPUT__/GWF_MST03/DIS                            NLAY             INTEGER                             1 --                                                                 
 __INPUT__/GWF_MST03/DIS                            NROW             INTEGER                             1 --                                                                 
 __INPUT__/GWF_MST03/DIS                            NCOL             INTEGER                             1 --                                                                 
 __INPUT__/GWF_MST03                                MODEL_SHAPE      INTEGER                             3 --                                                                 
 __INPUT__/GWF_MST03                                NCELLDIM         INTEGER                             1 --                                                                 
 __INPUT__/GWF_MST03/DIS                            DELR             DOUBLE                              1 --                                                                 
 __INPUT__/GWF_MST03/DIS                            DELC             DOUBLE                              1 --                                                                 
 __INPUT__/GWF_MST03/DIS                            TOP              DOUBLE                              1 --                                                                 
 __INPUT__/GWF_MST03/DIS                            BOTM             DOUBLE                              1 --                                                                 
 __INPUT__/GWF_MST03/DIS                            IDOMAIN          INTEGER                             1 --                                                                 
 __INPUT__/GWF_MST03/NPF                            IPAKCB           INTEGER                             1 --                                                                 
 __INPUT__/GWF_MST03/NPF                            ICELLTYPE        INTEGER                             1 --                                                                 
 __INPUT__/GWF_MST03/NPF                            K                DOUBLE                              1 --                                                                 
 __INPUT__/GWF_MST03/NPF                            K33              DOUBLE                              1 --                                                                 
 __INPUT__/GWF_MST03/WEL-1                          NAUX             INTEGER                             1 --                                                                 
 __INPUT__/GWF_MST03/WEL-1                          AUXILIARY        STRING LEN=16                       1 --                                                                 
 __INPUT__/GWF_MST03/WEL-1                          IPRPAK           INTEGER                             1 --                                                                 
 __INPUT__/GWF_MST03/WEL-1                          IPRFLOW          INTEGER                             1 --                                                                 
 __INPUT__/GWF_MST03/WEL-1                          IPAKCB           INTEGER                             1 --                                                                 
 __INPUT__/GWF_MST03/WEL-1                          MAXBOUND         INTEGER                             1 --                                                                 
 __INPUT__/GWF_MST03/WEL-1                          IPER             INTEGER                             1 --                                                                 
 __INPUT__/GWF_MST03/WEL-1                          IONPER           INTEGER                             1 --                                                                 
 __INPUT__/GWF_MST03/WEL-1                          NBOUND           INTEGER                             1 --                                                                 
 __INPUT__/GWF_MST03/WEL-1                          NCPL             INTEGER                             1 --                                                                 
 __INPUT__/GWF_MST03/WEL-1                          CELLID           INTEGER                             3 --                                                                 
 __INPUT__/GWF_MST03/WEL-1                          Q                DOUBLE                              1 --                                                                 
 __INPUT__/GWF_MST03/WEL-1                          AUXVAR           DOUBLE                              1 --                                                                 
 __INPUT__/GWF_MST03/WEL-1                          BOUNDNAME        STRING LEN=40                       0 --                                                                 
 -----------------------------------------------------------------------------------------------------------------------------------------------------------------------------



 MEMORY MANAGER TOTAL STORAGE BY DATA TYPE, IN KILOBYTES
 -------------------------------
                    ALLOCATED   
 DATA TYPE           MEMORY     
 -------------------------------
 Character        1.5350000     
 Logical          0.0000000     
 Integer          0.13200000    
 Real             6.40000000E-02
 -------------------------------
 Total            1.7310000     
 Virtual          0.0000000     
 -------------------------------



 OPENED gwt_mst03.nam
 FILE TYPE:GWT6      UNIT 1006   STATUS:OLD                 
 FORMAT:FORMATTED              ACCESS:SEQUENTIAL          
 ACTION:READ                

 # File generated by Flopy version 3.5.0.dev0 on 10/30/2023 at 09:14:14.

 OPENED gwt_mst03.dis
 FILE TYPE:DIS6      UNIT 1007   STATUS:OLD                 
 FORMAT:FORMATTED              ACCESS:SEQUENTIAL          
 ACTION:READ                

 # File generated by Flopy version 3.5.0.dev0 on 10/30/2023 at 09:14:14.

 OPENED gwt_mst03.ic
 FILE TYPE:IC6       UNIT 1008   STATUS:OLD                 
 FORMAT:FORMATTED              ACCESS:SEQUENTIAL          
 ACTION:READ                


 OPENED gwt_mst03.mst
 FILE TYPE:MST6      UNIT 1009   STATUS:OLD                 
 FORMAT:FORMATTED              ACCESS:SEQUENTIAL          
 ACTION:READ                


 OPENED gwt_mst03.adv
 FILE TYPE:ADV6      UNIT 1010   STATUS:OLD                 
 FORMAT:FORMATTED              ACCESS:SEQUENTIAL          
 ACTION:READ                


 OPENED gwt_mst03.ssm
 FILE TYPE:SSM6      UNIT 1011   STATUS:OLD                 
 FORMAT:FORMATTED              ACCESS:SEQUENTIAL          
 ACTION:READ                


 OPENED gwt_mst03.oc
 FILE TYPE:OC6       UNIT 1012   STATUS:OLD                 
 FORMAT:FORMATTED              ACCESS:SEQUENTIAL          
 ACTION:READ                


 READING SIMULATION OPTIONS
    MAXIMUM NUMBER OF ERRORS THAT WILL BE STORED IS 1000
 END OF SIMULATION OPTIONS

 READING SIMULATION TIMING

 OPENED mst03.tdis
 FILE TYPE:TDIS   UNIT 1013   STATUS:OLD                 
 FORMAT:FORMATTED              ACCESS:SEQUENTIAL          
 ACTION:READ                


 TDIS -- TEMPORAL DISCRETIZATION PACKAGE,
 VERSION 1 : 11/13/2014 - INPUT READ FROM UNIT 1013
 # File generated by Flopy version 3.5.0.dev0 on 10/30/2023 at 09:14:14.
 PROCESSING TDIS OPTIONS
    SIMULATION TIME UNIT IS DAYS
 END OF TDIS OPTIONS
 PROCESSING TDIS DIMENSIONS
    2 STRESS PERIOD(S) IN SIMULATION
 END OF TDIS DIMENSIONS
 PROCESSING TDIS PERIODDATA


 STRESS PERIOD     LENGTH       TIME STEPS     MULTIPLIER FOR DELT
 ----------------------------------------------------------------------------
        1         2.000000         14                    1.000
        2         2.000000         14                    1.000
 END OF TDIS PERIODDATA
 END OF SIMULATION TIMING

 READING SIMULATION MODELS
    GWF6 model 1 will be created
    GWT6 model 2 will be created
 END OF SIMULATION MODELS

 READING SIMULATION EXCHANGES
    GWF6-GWT6 exchange 1 will be created to connect model 1 with model 2
 END OF SIMULATION EXCHANGES

 READING SOLUTIONGROUP

 Creating solution: SLN_1           

 OPENED gwf_mst03.ims
 FILE TYPE:IMS   UNIT 1016   STATUS:OLD                 
 FORMAT:FORMATTED              ACCESS:SEQUENTIAL          
 ACTION:READ                


 Creating solution: SLN_2           

 OPENED gwt_mst03.ims
 FILE TYPE:IMS   UNIT 1017   STATUS:OLD                 
 FORMAT:FORMATTED              ACCESS:SEQUENTIAL          
 ACTION:READ                

 END OF SOLUTIONGROUP

PROCESSING MODEL CONNECTIONS
END OF MODEL CONNECTIONS

 IMS -- ITERATIVE MODEL SOLUTION PACKAGE, VERSION 6, 4/28/2017
         INPUT READ FROM UNIT 1016
 # File generated by Flopy version 3.5.0.dev0 on 10/30/2023 at 09:14:14.

 PROCESSING IMS OPTIONS
 END OF IMS OPTIONS

 PROCESSING IMS NONLINEAR
 END OF IMS NONLINEAR DATA
 **UNDER-RELAXATION WILL BE USED***


 PROCESSING LINEAR DATA
 END OF LINEAR DATA
 ***IMS LINEAR SOLVER WILL BE USED***

 IMSLINEAR -- UNSTRUCTURED LINEAR SOLUTION PACKAGE, VERSION 8, 04/28/2017
 An asymmetric matrix will be solved

 OUTER ITERATION CONVERGENCE CRITERION    (DVCLOSE) =    0.100000E-05
 MAXIMUM NUMBER OF OUTER ITERATIONS        (MXITER) = 100
 SOLVER PRINTOUT INDEX                     (IPRIMS) = 1
 NONLINEAR ITERATION METHOD            (NONLINMETH) = 3
 LINEAR SOLUTION METHOD                   (LINMETH) = 1
 UNDER-RELAXATION WEIGHT REDUCTION FACTOR   (THETA) =    0.700000E+00
 UNDER-RELAXATION WEIGHT INCREASE INCREMENT (KAPPA) =    0.000000E+00
 UNDER-RELAXATION PREVIOUS HISTORY FACTOR   (GAMMA) =    0.100000E+01
 UNDER-RELAXATION MOMENTUM TERM         (AMOMENTUM) =    0.000000E+00

       SOLUTION BY THE BICONJUGATE-GRADIENT STABILIZED METHOD
 ------------------------------------------------------------------
 MAXIMUM OF 100 CALLS OF SOLUTION ROUTINE
 MAXIMUM OF 300 INTERNAL ITERATIONS PER CALL TO SOLUTION ROUTINE
 LINEAR ACCELERATION METHOD            = BCGS      
 MATRIX PRECONDITIONING TYPE           = MOD. INCOMPLETE LU  
 MATRIX SCALING APPROACH               = NO SCALING          
 MATRIX REORDERING APPROACH            = ORIGINAL ORDERING        
 NUMBER OF ORTHOGONALIZATIONS          = 0
 HEAD CHANGE CRITERION FOR CLOSURE     =    0.10000E-05
 RESIDUAL CHANGE CRITERION FOR CLOSURE =    0.10000E-05
 RESIDUAL CONVERGENCE OPTION           = 0
 RESIDUAL CONVERGENCE NORM             = INFINITY NORM   
 RELAXATION FACTOR                     =    0.97000E+00




 IMS -- ITERATIVE MODEL SOLUTION PACKAGE, VERSION 6, 4/28/2017
         INPUT READ FROM UNIT 1017
 # File generated by Flopy version 3.5.0.dev0 on 10/30/2023 at 09:14:14.

 PROCESSING IMS OPTIONS
 END OF IMS OPTIONS

 PROCESSING IMS NONLINEAR
 END OF IMS NONLINEAR DATA
 ***UNDER-RELAXATION WILL NOT BE USED***


 PROCESSING LINEAR DATA
 END OF LINEAR DATA
 ***IMS LINEAR SOLVER WILL BE USED***

 IMSLINEAR -- UNSTRUCTURED LINEAR SOLUTION PACKAGE, VERSION 8, 04/28/2017
 An asymmetric matrix will be solved

 OUTER ITERATION CONVERGENCE CRITERION    (DVCLOSE) =    0.100000E-05
 MAXIMUM NUMBER OF OUTER ITERATIONS        (MXITER) = 100
 SOLVER PRINTOUT INDEX                     (IPRIMS) = 1
 NONLINEAR ITERATION METHOD            (NONLINMETH) = 0
 LINEAR SOLUTION METHOD                   (LINMETH) = 1

       SOLUTION BY THE BICONJUGATE-GRADIENT STABILIZED METHOD
 ------------------------------------------------------------------
 MAXIMUM OF 100 CALLS OF SOLUTION ROUTINE
 MAXIMUM OF 300 INTERNAL ITERATIONS PER CALL TO SOLUTION ROUTINE
 LINEAR ACCELERATION METHOD            = BCGS      
 MATRIX PRECONDITIONING TYPE           = MOD. INCOMPLETE LU  
 MATRIX SCALING APPROACH               = NO SCALING          
 MATRIX REORDERING APPROACH            = ORIGINAL ORDERING        
 NUMBER OF ORTHOGONALIZATIONS          = 0
 HEAD CHANGE CRITERION FOR CLOSURE     =    0.10000E-05
 RESIDUAL CHANGE CRITERION FOR CLOSURE =    0.10000E-05
 RESIDUAL CONVERGENCE OPTION           = 0
 RESIDUAL CONVERGENCE NORM             = INFINITY NORM   
 RELAXATION FACTOR                     =    0.97000E+00




    Solving:  Stress period:     1    Time step:     1

1
                            STRESS PERIOD NO. 1, LENGTH =   2.000000    
                            -----------------------------------------------
                            NUMBER OF TIME STEPS = 14
                            MULTIPLIER FOR DELT =     1.000
IDM inlist_rp iiper=1
IDM RP LIST kper=1
IDM RP LIST varname=CELLID, type=INTEGER1D
Found INODATA CELLIDsize m=3size n=1
CELLID FIRST SET nbound=1
IDM RP LIST varname=Q, type=DOUBLE
IDM RP LIST varname=AUXVAR, type=DOUBLE1D
                            INITIAL TIME STEP SIZE =  0.1428571    

 SLN_1 OUTER ITERATION SUMMARY
 ----------------------------------------------------------------------------------------------------------
                                OUTER      INNER                    STEP   MAXIMUM CHANGE MODEL-(CELLID) OR
 OUTER ITERATION STEP       ITERATION  ITERATION  MAXIMUM CHANGE SUCCESS             MODEL-PACKAGE-(NUMBER)
 ----------------------------------------------------------------------------------------------------------
 Model                              1          1      -35714286.                              1_GWF-(1,1,1)
 Model                              2          1       8.6428525                              1_GWF-(1,1,1)
 Model                              3          1       2.5928557                              1_GWF-(1,1,1)
 Model                              4          1      0.77785672                              1_GWF-(1,1,1)
 Model                              5          1      0.23335701                              1_GWF-(1,1,1)
 Model                              6          1  7.00071043E-02                              1_GWF-(1,1,1)
 Model                              7          2  2.10021313E-02                              1_GWF-(1,1,1)
 Model                              8          2  6.30063938E-03                              1_GWF-(1,1,1)
 Model                              9          2  1.89019182E-03                              1_GWF-(1,1,1)
 Model                             10          2  5.67057545E-04                              1_GWF-(1,1,1)
 Model                             11          2  1.70117263E-04                              1_GWF-(1,1,1)
 Model                             12          2  5.10351790E-05                              1_GWF-(1,1,1)
 Model                             13          2  1.53105537E-05                              1_GWF-(1,1,1)
 Model                             14          2  4.59316611E-06                              1_GWF-(1,1,1)
 Model                             15          2  1.37794983E-06                              1_GWF-(1,1,1)
 Model                             16          1  4.13384839E-07       *                      1_GWF-(1,1,1)
 ----------------------------------------------------------------------------------------------------------


 16 CALLS TO NUMERICAL SOLUTION IN TIME STEP 1 STRESS PERIOD 1
 25 TOTAL ITERATIONS

 SLN_2 OUTER ITERATION SUMMARY
 ----------------------------------------------------------------------------------------------------------
                                OUTER      INNER                    STEP   MAXIMUM CHANGE MODEL-(CELLID) OR
 OUTER ITERATION STEP       ITERATION  ITERATION  MAXIMUM CHANGE SUCCESS             MODEL-PACKAGE-(NUMBER)
 ----------------------------------------------------------------------------------------------------------
 Model                              1          1       0.0000000       *                      2_GWT-(1,1,1)
 ----------------------------------------------------------------------------------------------------------


 1 CALLS TO NUMERICAL SOLUTION IN TIME STEP 1 STRESS PERIOD 1
 1 TOTAL ITERATIONS

    Solving:  Stress period:     1    Time step:     2


 SLN_1 OUTER ITERATION SUMMARY
 ----------------------------------------------------------------------------------------------------------
                                OUTER      INNER                    STEP   MAXIMUM CHANGE MODEL-(CELLID) OR
 OUTER ITERATION STEP       ITERATION  ITERATION  MAXIMUM CHANGE SUCCESS             MODEL-PACKAGE-(NUMBER)
 ----------------------------------------------------------------------------------------------------------
 Model                              1          1     -0.35714250                              1_GWF-(1,1,1)
 Model                              2          1 -9.36495326E-12       *                      1_GWF-(1,1,1)
 ----------------------------------------------------------------------------------------------------------


 2 CALLS TO NUMERICAL SOLUTION IN TIME STEP 2 STRESS PERIOD 1
 2 TOTAL ITERATIONS

 SLN_2 OUTER ITERATION SUMMARY
 ----------------------------------------------------------------------------------------------------------
                                OUTER      INNER                    STEP   MAXIMUM CHANGE MODEL-(CELLID) OR
 OUTER ITERATION STEP       ITERATION  ITERATION  MAXIMUM CHANGE SUCCESS             MODEL-PACKAGE-(NUMBER)
 ----------------------------------------------------------------------------------------------------------
 Model                              1          1 -5.63360913E-10       *                      2_GWT-(1,1,1)
 ----------------------------------------------------------------------------------------------------------


 1 CALLS TO NUMERICAL SOLUTION IN TIME STEP 2 STRESS PERIOD 1
 1 TOTAL ITERATIONS

    Solving:  Stress period:     1    Time step:     3


 SLN_1 OUTER ITERATION SUMMARY
 ----------------------------------------------------------------------------------------------------------
                                OUTER      INNER                    STEP   MAXIMUM CHANGE MODEL-(CELLID) OR
 OUTER ITERATION STEP       ITERATION  ITERATION  MAXIMUM CHANGE SUCCESS             MODEL-PACKAGE-(NUMBER)
 ----------------------------------------------------------------------------------------------------------
 Model                              1          1     -0.35714250                              1_GWF-(1,1,1)
 Model                              2          1 -9.36495326E-12       *                      1_GWF-(1,1,1)
 ----------------------------------------------------------------------------------------------------------


 2 CALLS TO NUMERICAL SOLUTION IN TIME STEP 3 STRESS PERIOD 1
 2 TOTAL ITERATIONS

 SLN_2 OUTER ITERATION SUMMARY
 ----------------------------------------------------------------------------------------------------------
                                OUTER      INNER                    STEP   MAXIMUM CHANGE MODEL-(CELLID) OR
 OUTER ITERATION STEP       ITERATION  ITERATION  MAXIMUM CHANGE SUCCESS             MODEL-PACKAGE-(NUMBER)
 ----------------------------------------------------------------------------------------------------------
 Model                              1          1 -5.85075099E-10       *                      2_GWT-(1,1,1)
 ----------------------------------------------------------------------------------------------------------


 1 CALLS TO NUMERICAL SOLUTION IN TIME STEP 3 STRESS PERIOD 1
 1 TOTAL ITERATIONS

    Solving:  Stress period:     1    Time step:     4


 SLN_1 OUTER ITERATION SUMMARY
 ----------------------------------------------------------------------------------------------------------
                                OUTER      INNER                    STEP   MAXIMUM CHANGE MODEL-(CELLID) OR
 OUTER ITERATION STEP       ITERATION  ITERATION  MAXIMUM CHANGE SUCCESS             MODEL-PACKAGE-(NUMBER)
 ----------------------------------------------------------------------------------------------------------
 Model                              1          1     -0.35714250                              1_GWF-(1,1,1)
 Model                              2          1 -9.36495326E-12       *                      1_GWF-(1,1,1)
 ----------------------------------------------------------------------------------------------------------


 2 CALLS TO NUMERICAL SOLUTION IN TIME STEP 4 STRESS PERIOD 1
 2 TOTAL ITERATIONS

 SLN_2 OUTER ITERATION SUMMARY
 ----------------------------------------------------------------------------------------------------------
                                OUTER      INNER                    STEP   MAXIMUM CHANGE MODEL-(CELLID) OR
 OUTER ITERATION STEP       ITERATION  ITERATION  MAXIMUM CHANGE SUCCESS             MODEL-PACKAGE-(NUMBER)
 ----------------------------------------------------------------------------------------------------------
 Model                              1          1 -6.08451955E-10       *                      2_GWT-(1,1,1)
 ----------------------------------------------------------------------------------------------------------


 1 CALLS TO NUMERICAL SOLUTION IN TIME STEP 4 STRESS PERIOD 1
 1 TOTAL ITERATIONS

    Solving:  Stress period:     1    Time step:     5


 SLN_1 OUTER ITERATION SUMMARY
 ----------------------------------------------------------------------------------------------------------
                                OUTER      INNER                    STEP   MAXIMUM CHANGE MODEL-(CELLID) OR
 OUTER ITERATION STEP       ITERATION  ITERATION  MAXIMUM CHANGE SUCCESS             MODEL-PACKAGE-(NUMBER)
 ----------------------------------------------------------------------------------------------------------
 Model                              1          2     -0.35714250                              1_GWF-(1,1,1)
 Model                              2          1 -9.36495326E-12       *                      1_GWF-(1,1,1)
 ----------------------------------------------------------------------------------------------------------


 2 CALLS TO NUMERICAL SOLUTION IN TIME STEP 5 STRESS PERIOD 1
 3 TOTAL ITERATIONS

 SLN_2 OUTER ITERATION SUMMARY
 ----------------------------------------------------------------------------------------------------------
                                OUTER      INNER                    STEP   MAXIMUM CHANGE MODEL-(CELLID) OR
 OUTER ITERATION STEP       ITERATION  ITERATION  MAXIMUM CHANGE SUCCESS             MODEL-PACKAGE-(NUMBER)
 ----------------------------------------------------------------------------------------------------------
 Model                              1          1 -6.33818331E-10       *                      2_GWT-(1,1,1)
 ----------------------------------------------------------------------------------------------------------


 1 CALLS TO NUMERICAL SOLUTION IN TIME STEP 5 STRESS PERIOD 1
 1 TOTAL ITERATIONS

    Solving:  Stress period:     1    Time step:     6


 SLN_1 OUTER ITERATION SUMMARY
 ----------------------------------------------------------------------------------------------------------
                                OUTER      INNER                    STEP   MAXIMUM CHANGE MODEL-(CELLID) OR
 OUTER ITERATION STEP       ITERATION  ITERATION  MAXIMUM CHANGE SUCCESS             MODEL-PACKAGE-(NUMBER)
 ----------------------------------------------------------------------------------------------------------
 Model                              1          1     -0.35714250                              1_GWF-(1,1,1)
 Model                              2          1 -9.36495326E-12       *                      1_GWF-(1,1,1)
 ----------------------------------------------------------------------------------------------------------


 2 CALLS TO NUMERICAL SOLUTION IN TIME STEP 6 STRESS PERIOD 1
 2 TOTAL ITERATIONS

 SLN_2 OUTER ITERATION SUMMARY
 ----------------------------------------------------------------------------------------------------------
                                OUTER      INNER                    STEP   MAXIMUM CHANGE MODEL-(CELLID) OR
 OUTER ITERATION STEP       ITERATION  ITERATION  MAXIMUM CHANGE SUCCESS             MODEL-PACKAGE-(NUMBER)
 ----------------------------------------------------------------------------------------------------------
 Model                              1          1 -6.61373178E-10       *                      2_GWT-(1,1,1)
 ----------------------------------------------------------------------------------------------------------


 1 CALLS TO NUMERICAL SOLUTION IN TIME STEP 6 STRESS PERIOD 1
 1 TOTAL ITERATIONS

    Solving:  Stress period:     1    Time step:     7


 SLN_1 OUTER ITERATION SUMMARY
 ----------------------------------------------------------------------------------------------------------
                                OUTER      INNER                    STEP   MAXIMUM CHANGE MODEL-(CELLID) OR
 OUTER ITERATION STEP       ITERATION  ITERATION  MAXIMUM CHANGE SUCCESS             MODEL-PACKAGE-(NUMBER)
 ----------------------------------------------------------------------------------------------------------
 Model                              1          1     -0.35714250                              1_GWF-(1,1,1)
 Model                              2          1 -9.36584144E-12       *                      1_GWF-(1,1,1)
 ----------------------------------------------------------------------------------------------------------


 2 CALLS TO NUMERICAL SOLUTION IN TIME STEP 7 STRESS PERIOD 1
 2 TOTAL ITERATIONS

 SLN_2 OUTER ITERATION SUMMARY
 ----------------------------------------------------------------------------------------------------------
                                OUTER      INNER                    STEP   MAXIMUM CHANGE MODEL-(CELLID) OR
 OUTER ITERATION STEP       ITERATION  ITERATION  MAXIMUM CHANGE SUCCESS             MODEL-PACKAGE-(NUMBER)
 ----------------------------------------------------------------------------------------------------------
 Model                              1          1 -6.91443347E-10       *                      2_GWT-(1,1,1)
 ----------------------------------------------------------------------------------------------------------


 1 CALLS TO NUMERICAL SOLUTION IN TIME STEP 7 STRESS PERIOD 1
 1 TOTAL ITERATIONS

    Solving:  Stress period:     1    Time step:     8


 SLN_1 OUTER ITERATION SUMMARY
 ----------------------------------------------------------------------------------------------------------
                                OUTER      INNER                    STEP   MAXIMUM CHANGE MODEL-(CELLID) OR
 OUTER ITERATION STEP       ITERATION  ITERATION  MAXIMUM CHANGE SUCCESS             MODEL-PACKAGE-(NUMBER)
 ----------------------------------------------------------------------------------------------------------
 Model                              1          2     -0.35714250                              1_GWF-(1,1,1)
 Model                              2          1 -9.36406508E-12       *                      1_GWF-(1,1,1)
 ----------------------------------------------------------------------------------------------------------


 2 CALLS TO NUMERICAL SOLUTION IN TIME STEP 8 STRESS PERIOD 1
 3 TOTAL ITERATIONS

 SLN_2 OUTER ITERATION SUMMARY
 ----------------------------------------------------------------------------------------------------------
                                OUTER      INNER                    STEP   MAXIMUM CHANGE MODEL-(CELLID) OR
 OUTER ITERATION STEP       ITERATION  ITERATION  MAXIMUM CHANGE SUCCESS             MODEL-PACKAGE-(NUMBER)
 ----------------------------------------------------------------------------------------------------------
 Model                              1          1 -7.24355687E-10       *                      2_GWT-(1,1,1)
 ----------------------------------------------------------------------------------------------------------


 1 CALLS TO NUMERICAL SOLUTION IN TIME STEP 8 STRESS PERIOD 1
 1 TOTAL ITERATIONS

    Solving:  Stress period:     1    Time step:     9


 SLN_1 OUTER ITERATION SUMMARY
 ----------------------------------------------------------------------------------------------------------
                                OUTER      INNER                    STEP   MAXIMUM CHANGE MODEL-(CELLID) OR
 OUTER ITERATION STEP       ITERATION  ITERATION  MAXIMUM CHANGE SUCCESS             MODEL-PACKAGE-(NUMBER)
 ----------------------------------------------------------------------------------------------------------
 Model                              1          1     -0.35714250                              1_GWF-(1,1,1)
 Model                              2          1 -9.36495326E-12       *                      1_GWF-(1,1,1)
 ----------------------------------------------------------------------------------------------------------


 2 CALLS TO NUMERICAL SOLUTION IN TIME STEP 9 STRESS PERIOD 1
 2 TOTAL ITERATIONS

 SLN_2 OUTER ITERATION SUMMARY
 ----------------------------------------------------------------------------------------------------------
                                OUTER      INNER                    STEP   MAXIMUM CHANGE MODEL-(CELLID) OR
 OUTER ITERATION STEP       ITERATION  ITERATION  MAXIMUM CHANGE SUCCESS             MODEL-PACKAGE-(NUMBER)
 ----------------------------------------------------------------------------------------------------------
 Model                              1          1 -7.60550734E-10       *                      2_GWT-(1,1,1)
 ----------------------------------------------------------------------------------------------------------


 1 CALLS TO NUMERICAL SOLUTION IN TIME STEP 9 STRESS PERIOD 1
 1 TOTAL ITERATIONS

    Solving:  Stress period:     1    Time step:    10


 SLN_1 OUTER ITERATION SUMMARY
 ----------------------------------------------------------------------------------------------------------
                                OUTER      INNER                    STEP   MAXIMUM CHANGE MODEL-(CELLID) OR
 OUTER ITERATION STEP       ITERATION  ITERATION  MAXIMUM CHANGE SUCCESS             MODEL-PACKAGE-(NUMBER)
 ----------------------------------------------------------------------------------------------------------
 Model                              1          1     -0.35714250                              1_GWF-(1,1,1)
 Model                              2          1 -9.36495326E-12       *                      1_GWF-(1,1,1)
 ----------------------------------------------------------------------------------------------------------


 2 CALLS TO NUMERICAL SOLUTION IN TIME STEP 10 STRESS PERIOD 1
 2 TOTAL ITERATIONS

 SLN_2 OUTER ITERATION SUMMARY
 ----------------------------------------------------------------------------------------------------------
                                OUTER      INNER                    STEP   MAXIMUM CHANGE MODEL-(CELLID) OR
 OUTER ITERATION STEP       ITERATION  ITERATION  MAXIMUM CHANGE SUCCESS             MODEL-PACKAGE-(NUMBER)
 ----------------------------------------------------------------------------------------------------------
 Model                              1          1 -8.00611133E-10       *                      2_GWT-(1,1,1)
 ----------------------------------------------------------------------------------------------------------


 1 CALLS TO NUMERICAL SOLUTION IN TIME STEP 10 STRESS PERIOD 1
 1 TOTAL ITERATIONS

    Solving:  Stress period:     1    Time step:    11


 SLN_1 OUTER ITERATION SUMMARY
 ----------------------------------------------------------------------------------------------------------
                                OUTER      INNER                    STEP   MAXIMUM CHANGE MODEL-(CELLID) OR
 OUTER ITERATION STEP       ITERATION  ITERATION  MAXIMUM CHANGE SUCCESS             MODEL-PACKAGE-(NUMBER)
 ----------------------------------------------------------------------------------------------------------
 Model                              1          1     -0.35714250                              1_GWF-(1,1,1)
 Model                              2          1 -9.36495326E-12       *                      1_GWF-(1,1,1)
 ----------------------------------------------------------------------------------------------------------


 2 CALLS TO NUMERICAL SOLUTION IN TIME STEP 11 STRESS PERIOD 1
 2 TOTAL ITERATIONS

 SLN_2 OUTER ITERATION SUMMARY
 ----------------------------------------------------------------------------------------------------------
                                OUTER      INNER                    STEP   MAXIMUM CHANGE MODEL-(CELLID) OR
 OUTER ITERATION STEP       ITERATION  ITERATION  MAXIMUM CHANGE SUCCESS             MODEL-PACKAGE-(NUMBER)
 ----------------------------------------------------------------------------------------------------------
 Model                              1          1 -8.45076897E-10       *                      2_GWT-(1,1,1)
 ----------------------------------------------------------------------------------------------------------


 1 CALLS TO NUMERICAL SOLUTION IN TIME STEP 11 STRESS PERIOD 1
 1 TOTAL ITERATIONS

    Solving:  Stress period:     1    Time step:    12


 SLN_1 OUTER ITERATION SUMMARY
 ----------------------------------------------------------------------------------------------------------
                                OUTER      INNER                    STEP   MAXIMUM CHANGE MODEL-(CELLID) OR
 OUTER ITERATION STEP       ITERATION  ITERATION  MAXIMUM CHANGE SUCCESS             MODEL-PACKAGE-(NUMBER)
 ----------------------------------------------------------------------------------------------------------
 Model                              1          1     -0.35714250                              1_GWF-(1,1,1)
 Model                              2          1 -9.36495326E-12       *                      1_GWF-(1,1,1)
 ----------------------------------------------------------------------------------------------------------


 2 CALLS TO NUMERICAL SOLUTION IN TIME STEP 12 STRESS PERIOD 1
 2 TOTAL ITERATIONS

 SLN_2 OUTER ITERATION SUMMARY
 ----------------------------------------------------------------------------------------------------------
                                OUTER      INNER                    STEP   MAXIMUM CHANGE MODEL-(CELLID) OR
 OUTER ITERATION STEP       ITERATION  ITERATION  MAXIMUM CHANGE SUCCESS             MODEL-PACKAGE-(NUMBER)
 ----------------------------------------------------------------------------------------------------------
 Model                              1          1 -8.94786467E-10       *                      2_GWT-(1,1,1)
 ----------------------------------------------------------------------------------------------------------


 1 CALLS TO NUMERICAL SOLUTION IN TIME STEP 12 STRESS PERIOD 1
 1 TOTAL ITERATIONS

    Solving:  Stress period:     1    Time step:    13


 SLN_1 OUTER ITERATION SUMMARY
 ----------------------------------------------------------------------------------------------------------
                                OUTER      INNER                    STEP   MAXIMUM CHANGE MODEL-(CELLID) OR
 OUTER ITERATION STEP       ITERATION  ITERATION  MAXIMUM CHANGE SUCCESS             MODEL-PACKAGE-(NUMBER)
 ----------------------------------------------------------------------------------------------------------
 Model                              1          1     -0.35714250                              1_GWF-(1,1,1)
 Model                              2          1 -9.36495326E-12       *                      1_GWF-(1,1,1)
 ----------------------------------------------------------------------------------------------------------


 2 CALLS TO NUMERICAL SOLUTION IN TIME STEP 13 STRESS PERIOD 1
 2 TOTAL ITERATIONS

 SLN_2 OUTER ITERATION SUMMARY
 ----------------------------------------------------------------------------------------------------------
                                OUTER      INNER                    STEP   MAXIMUM CHANGE MODEL-(CELLID) OR
 OUTER ITERATION STEP       ITERATION  ITERATION  MAXIMUM CHANGE SUCCESS             MODEL-PACKAGE-(NUMBER)
 ----------------------------------------------------------------------------------------------------------
 Model                              1          1 -9.50734602E-10       *                      2_GWT-(1,1,1)
 ----------------------------------------------------------------------------------------------------------


 1 CALLS TO NUMERICAL SOLUTION IN TIME STEP 13 STRESS PERIOD 1
 1 TOTAL ITERATIONS

    Solving:  Stress period:     1    Time step:    14


 SLN_1 OUTER ITERATION SUMMARY
 ----------------------------------------------------------------------------------------------------------
                                OUTER      INNER                    STEP   MAXIMUM CHANGE MODEL-(CELLID) OR
 OUTER ITERATION STEP       ITERATION  ITERATION  MAXIMUM CHANGE SUCCESS             MODEL-PACKAGE-(NUMBER)
 ----------------------------------------------------------------------------------------------------------
 Model                              1          1     -0.35714250                              1_GWF-(1,1,1)
 Model                              2          1 -9.36495326E-12       *                      1_GWF-(1,1,1)
 ----------------------------------------------------------------------------------------------------------


 2 CALLS TO NUMERICAL SOLUTION IN TIME STEP 14 STRESS PERIOD 1
 2 TOTAL ITERATIONS

 SLN_2 OUTER ITERATION SUMMARY
 ----------------------------------------------------------------------------------------------------------
                                OUTER      INNER                    STEP   MAXIMUM CHANGE MODEL-(CELLID) OR
 OUTER ITERATION STEP       ITERATION  ITERATION  MAXIMUM CHANGE SUCCESS             MODEL-PACKAGE-(NUMBER)
 ----------------------------------------------------------------------------------------------------------
 Model                              1          1 -1.01411501E-09       *                      2_GWT-(1,1,1)
 ----------------------------------------------------------------------------------------------------------


 1 CALLS TO NUMERICAL SOLUTION IN TIME STEP 14 STRESS PERIOD 1
 1 TOTAL ITERATIONS

    Solving:  Stress period:     2    Time step:     1

1
                            STRESS PERIOD NO. 2, LENGTH =   2.000000    
                            -----------------------------------------------
                            NUMBER OF TIME STEPS = 14
                            MULTIPLIER FOR DELT =     1.000
IDM inlist_rp iiper=2
IDM RP LIST kper=2
IDM RP LIST varname=CELLID, type=INTEGER1D
Found INODATA CELLIDsize m=3size n=1
CELLID FIRST SET nbound=1
IDM RP LIST varname=Q, type=DOUBLE
IDM RP LIST varname=AUXVAR, type=DOUBLE1D
                            INITIAL TIME STEP SIZE =  0.1428571    

 SLN_1 OUTER ITERATION SUMMARY
 ----------------------------------------------------------------------------------------------------------
                                OUTER      INNER                    STEP   MAXIMUM CHANGE MODEL-(CELLID) OR
 OUTER ITERATION STEP       ITERATION  ITERATION  MAXIMUM CHANGE SUCCESS             MODEL-PACKAGE-(NUMBER)
 ----------------------------------------------------------------------------------------------------------
 Model                              1          1      0.35714250                              1_GWF-(1,1,1)
 Model                              2          1 -9.36406508E-12       *                      1_GWF-(1,1,1)
 ----------------------------------------------------------------------------------------------------------


 2 CALLS TO NUMERICAL SOLUTION IN TIME STEP 1 STRESS PERIOD 2
 2 TOTAL ITERATIONS

 SLN_2 OUTER ITERATION SUMMARY
 ----------------------------------------------------------------------------------------------------------
                                OUTER      INNER                    STEP   MAXIMUM CHANGE MODEL-(CELLID) OR
 OUTER ITERATION STEP       ITERATION  ITERATION  MAXIMUM CHANGE SUCCESS             MODEL-PACKAGE-(NUMBER)
 ----------------------------------------------------------------------------------------------------------
 Model                              1          1      -6.6666666                              2_GWT-(1,1,1)
 Model                              2          0       0.0000000       *                      2_GWT-(1,1,1)
 ----------------------------------------------------------------------------------------------------------


 2 CALLS TO NUMERICAL SOLUTION IN TIME STEP 1 STRESS PERIOD 2
 1 TOTAL ITERATIONS

    Solving:  Stress period:     2    Time step:     2


 SLN_1 OUTER ITERATION SUMMARY
 ----------------------------------------------------------------------------------------------------------
                                OUTER      INNER                    STEP   MAXIMUM CHANGE MODEL-(CELLID) OR
 OUTER ITERATION STEP       ITERATION  ITERATION  MAXIMUM CHANGE SUCCESS             MODEL-PACKAGE-(NUMBER)
 ----------------------------------------------------------------------------------------------------------
 Model                              1          1      0.35714250                              1_GWF-(1,1,1)
 Model                              2          1 -9.36584144E-12       *                      1_GWF-(1,1,1)
 ----------------------------------------------------------------------------------------------------------


 2 CALLS TO NUMERICAL SOLUTION IN TIME STEP 2 STRESS PERIOD 2
 2 TOTAL ITERATIONS

 SLN_2 OUTER ITERATION SUMMARY
 ----------------------------------------------------------------------------------------------------------
                                OUTER      INNER                    STEP   MAXIMUM CHANGE MODEL-(CELLID) OR
 OUTER ITERATION STEP       ITERATION  ITERATION  MAXIMUM CHANGE SUCCESS             MODEL-PACKAGE-(NUMBER)
 ----------------------------------------------------------------------------------------------------------
 Model                              1          1      -5.8333333                              2_GWT-(1,1,1)
 Model                              2          0       0.0000000       *                      2_GWT-(1,1,1)
 ----------------------------------------------------------------------------------------------------------


 2 CALLS TO NUMERICAL SOLUTION IN TIME STEP 2 STRESS PERIOD 2
 1 TOTAL ITERATIONS

    Solving:  Stress period:     2    Time step:     3


 SLN_1 OUTER ITERATION SUMMARY
 ----------------------------------------------------------------------------------------------------------
                                OUTER      INNER                    STEP   MAXIMUM CHANGE MODEL-(CELLID) OR
 OUTER ITERATION STEP       ITERATION  ITERATION  MAXIMUM CHANGE SUCCESS             MODEL-PACKAGE-(NUMBER)
 ----------------------------------------------------------------------------------------------------------
 Model                              1          1      0.35714250                              1_GWF-(1,1,1)
 Model                              2          1 -9.36584144E-12       *                      1_GWF-(1,1,1)
 ----------------------------------------------------------------------------------------------------------


 2 CALLS TO NUMERICAL SOLUTION IN TIME STEP 3 STRESS PERIOD 2
 2 TOTAL ITERATIONS

 SLN_2 OUTER ITERATION SUMMARY
 ----------------------------------------------------------------------------------------------------------
                                OUTER      INNER                    STEP   MAXIMUM CHANGE MODEL-(CELLID) OR
 OUTER ITERATION STEP       ITERATION  ITERATION  MAXIMUM CHANGE SUCCESS             MODEL-PACKAGE-(NUMBER)
 ----------------------------------------------------------------------------------------------------------
 Model                              1          1      -5.1470588                              2_GWT-(1,1,1)
 Model                              2          1       0.0000000       *                      2_GWT-(1,1,1)
 ----------------------------------------------------------------------------------------------------------


 2 CALLS TO NUMERICAL SOLUTION IN TIME STEP 3 STRESS PERIOD 2
 2 TOTAL ITERATIONS

    Solving:  Stress period:     2    Time step:     4


 SLN_1 OUTER ITERATION SUMMARY
 ----------------------------------------------------------------------------------------------------------
[...]
 GWT_MST03/MST                                      BULK_DENSITY     DOUBLE                              1 --                                                                 
 GWT_MST03/MST                                      SP2              DOUBLE                              1 --                                                                 
 GWT_MST03/MST                                      DISTCOEF         DOUBLE                              1 --                                                                 
 GWT_MST03/MST                                      RATESRB          DOUBLE                              1 --                                                                 
 GWT_MST03/SSM                                      IAUXPAK          INTEGER                             1 --                                                                 
 GWT_MST03/SSM                                      ISRCTYPE         INTEGER                             1 --                                                                 
 GWT_MST03/FMI                                      GWFHEAD          DOUBLE                              1 GWF_MST03/X                                                        
 GWT_MST03/FMI                                      GWFSAT           DOUBLE                              1 GWF_MST03/NPF/SAT                                                  
 GWT_MST03/FMI                                      GWFSPDIS         DOUBLE                              0 GWF_MST03/NPF/SPDIS                                                
 SLN_1/IMSLINEAR                                    DVCLOSE          DOUBLE                              1 --                                                                 
 SLN_1/IMSLINEAR                                    RCLOSE           DOUBLE                              1 --                                                                 
 SLN_1/IMSLINEAR                                    ICNVGOPT         INTEGER                             1 --                                                                 
 SLN_1/IMSLINEAR                                    ITER1            INTEGER                             1 --                                                                 
 SLN_1/IMSLINEAR                                    ILINMETH         INTEGER                             1 --                                                                 
 SLN_1/IMSLINEAR                                    ISCL             INTEGER                             1 --                                                                 
 SLN_1/IMSLINEAR                                    IORD             INTEGER                             1 --                                                                 
 SLN_1/IMSLINEAR                                    NORTH            INTEGER                             1 --                                                                 
 SLN_1/IMSLINEAR                                    RELAX            DOUBLE                              1 --                                                                 
 SLN_1/IMSLINEAR                                    LEVEL            INTEGER                             1 --                                                                 
 SLN_1/IMSLINEAR                                    DROPTOL          DOUBLE                              1 --                                                                 
 SLN_1/IMSLINEAR                                    IDFPARAM         INTEGER                             1 --                                                                 
 SLN_1/IMSLINEAR                                    NJA              INTEGER                             1 --                                                                 
 SLN_1/IMSLINEAR                                    IOUT             INTEGER                             1 --                                                                 
 SLN_1/IMSLINEAR                                    IPC              INTEGER                             1 --                                                                 
 SLN_1/IMSLINEAR                                    IACPC            INTEGER                             1 --                                                                 
 SLN_1/IMSLINEAR                                    NITERC           INTEGER                             1 --                                                                 
 SLN_1/IMSLINEAR                                    NIABCGS          INTEGER                             1 --                                                                 
 SLN_1/IMSLINEAR                                    NIAPC            INTEGER                             1 --                                                                 
 SLN_1/IMSLINEAR                                    NJAPC            INTEGER                             1 --                                                                 
 SLN_1/IMSLINEAR                                    EPFACT           DOUBLE                              1 --                                                                 
 SLN_1/IMSLINEAR                                    L2NORM0          DOUBLE                              1 --                                                                 
 SLN_1/IMSLINEAR                                    NJLU             INTEGER                             1 --                                                                 
 SLN_1/IMSLINEAR                                    NJW              INTEGER                             1 --                                                                 
 SLN_1/IMSLINEAR                                    NWLU             INTEGER                             1 --                                                                 
 SLN_1/IMSLINEAR                                    DSCALE           DOUBLE                              1 --                                                                 
 SLN_1/IMSLINEAR                                    DSCALE2          DOUBLE                              1 --                                                                 
 SLN_1/IMSLINEAR                                    IAPC             INTEGER                             2 --                                                                 
 SLN_1/IMSLINEAR                                    JAPC             INTEGER                             1 --                                                                 
 SLN_1/IMSLINEAR                                    APC              DOUBLE                              1 --                                                                 
 SLN_1/IMSLINEAR                                    IW               INTEGER                             1 --                                                                 
 SLN_1/IMSLINEAR                                    W                DOUBLE                              1 --                                                                 
 SLN_1/IMSLINEAR                                    JLU              INTEGER                             1 --                                                                 
 SLN_1/IMSLINEAR                                    JW               INTEGER                             1 --                                                                 
 SLN_1/IMSLINEAR                                    WLU              DOUBLE                              1 --                                                                 
 SLN_1/IMSLINEAR                                    LORDER           INTEGER                             1 --                                                                 
 SLN_1/IMSLINEAR                                    IORDER           INTEGER                             1 --                                                                 
 SLN_1/IMSLINEAR                                    IARO             INTEGER                             2 --                                                                 
 SLN_1/IMSLINEAR                                    JARO             INTEGER                             1 --                                                                 
 SLN_1/IMSLINEAR                                    ARO              DOUBLE                              1 --                                                                 
 SLN_1/IMSLINEAR                                    ID               INTEGER                             1 --                                                                 
 SLN_1/IMSLINEAR                                    D                DOUBLE                              1 --                                                                 
 SLN_1/IMSLINEAR                                    P                DOUBLE                              1 --                                                                 
 SLN_1/IMSLINEAR                                    Q                DOUBLE                              1 --                                                                 
 SLN_1/IMSLINEAR                                    Z                DOUBLE                              1 --                                                                 
 SLN_1/IMSLINEAR                                    T                DOUBLE                              1 --                                                                 
 SLN_1/IMSLINEAR                                    V                DOUBLE                              1 --                                                                 
 SLN_1/IMSLINEAR                                    DHAT             DOUBLE                              1 --                                                                 
 SLN_1/IMSLINEAR                                    PHAT             DOUBLE                              1 --                                                                 
 SLN_1/IMSLINEAR                                    QHAT             DOUBLE                              1 --                                                                 
 SLN_2/IMSLINEAR                                    DVCLOSE          DOUBLE                              1 --                                                                 
 SLN_2/IMSLINEAR                                    RCLOSE           DOUBLE                              1 --                                                                 
 SLN_2/IMSLINEAR                                    ICNVGOPT         INTEGER                             1 --                                                                 
 SLN_2/IMSLINEAR                                    ITER1            INTEGER                             1 --                                                                 
 SLN_2/IMSLINEAR                                    ILINMETH         INTEGER                             1 --                                                                 
 SLN_2/IMSLINEAR                                    ISCL             INTEGER                             1 --                                                                 
 SLN_2/IMSLINEAR                                    IORD             INTEGER                             1 --                                                                 
 SLN_2/IMSLINEAR                                    NORTH            INTEGER                             1 --                                                                 
 SLN_2/IMSLINEAR                                    RELAX            DOUBLE                              1 --                                                                 
 SLN_2/IMSLINEAR                                    LEVEL            INTEGER                             1 --                                                                 
 SLN_2/IMSLINEAR                                    DROPTOL          DOUBLE                              1 --                                                                 
 SLN_2/IMSLINEAR                                    IDFPARAM         INTEGER                             1 --                                                                 
 SLN_2/IMSLINEAR                                    NJA              INTEGER                             1 --                                                                 
 SLN_2/IMSLINEAR                                    IOUT             INTEGER                             1 --                                                                 
 SLN_2/IMSLINEAR                                    IPC              INTEGER                             1 --                                                                 
 SLN_2/IMSLINEAR                                    IACPC            INTEGER                             1 --                                                                 
 SLN_2/IMSLINEAR                                    NITERC           INTEGER                             1 --                                                                 
 SLN_2/IMSLINEAR                                    NIABCGS          INTEGER                             1 --                                                                 
 SLN_2/IMSLINEAR                                    NIAPC            INTEGER                             1 --                                                                 
 SLN_2/IMSLINEAR                                    NJAPC            INTEGER                             1 --                                                                 
 SLN_2/IMSLINEAR                                    EPFACT           DOUBLE                              1 --                                                                 
 SLN_2/IMSLINEAR                                    L2NORM0          DOUBLE                              1 --                                                                 
 SLN_2/IMSLINEAR                                    NJLU             INTEGER                             1 --                                                                 
 SLN_2/IMSLINEAR                                    NJW              INTEGER                             1 --                                                                 
 SLN_2/IMSLINEAR                                    NWLU             INTEGER                             1 --                                                                 
 SLN_2/IMSLINEAR                                    DSCALE           DOUBLE                              1 --                                                                 
 SLN_2/IMSLINEAR                                    DSCALE2          DOUBLE                              1 --                                                                 
 SLN_2/IMSLINEAR                                    IAPC             INTEGER                             2 --                                                                 
 SLN_2/IMSLINEAR                                    JAPC             INTEGER                             1 --                                                                 
 SLN_2/IMSLINEAR                                    APC              DOUBLE                              1 --                                                                 
 SLN_2/IMSLINEAR                                    IW               INTEGER                             1 --                                                                 
 SLN_2/IMSLINEAR                                    W                DOUBLE                              1 --                                                                 
 SLN_2/IMSLINEAR                                    JLU              INTEGER                             1 --                                                                 
 SLN_2/IMSLINEAR                                    JW               INTEGER                             1 --                                                                 
 SLN_2/IMSLINEAR                                    WLU              DOUBLE                              1 --                                                                 
 SLN_2/IMSLINEAR                                    LORDER           INTEGER                             1 --                                                                 
 SLN_2/IMSLINEAR                                    IORDER           INTEGER                             1 --                                                                 
 SLN_2/IMSLINEAR                                    IARO             INTEGER                             2 --                                                                 
 SLN_2/IMSLINEAR                                    JARO             INTEGER                             1 --                                                                 
 SLN_2/IMSLINEAR                                    ARO              DOUBLE                              1 --                                                                 
 SLN_2/IMSLINEAR                                    ID               INTEGER                             1 --                                                                 
 SLN_2/IMSLINEAR                                    D                DOUBLE                              1 --                                                                 
 SLN_2/IMSLINEAR                                    P                DOUBLE                              1 --                                                                 
 SLN_2/IMSLINEAR                                    Q                DOUBLE                              1 --                                                                 
 SLN_2/IMSLINEAR                                    Z                DOUBLE                              1 --                                                                 
 SLN_2/IMSLINEAR                                    T                DOUBLE                              1 --                                                                 
 SLN_2/IMSLINEAR                                    V                DOUBLE                              1 --                                                                 
 SLN_2/IMSLINEAR                                    DHAT             DOUBLE                              1 --                                                                 
 SLN_2/IMSLINEAR                                    PHAT             DOUBLE                              1 --                                                                 
 SLN_2/IMSLINEAR                                    QHAT             DOUBLE                              1 --                                                                 
 -----------------------------------------------------------------------------------------------------------------------------------------------------------------------------



 MEMORY MANAGER TOTAL STORAGE BY DATA TYPE, IN KILOBYTES
 -------------------------------
                    ALLOCATED   
 DATA TYPE           MEMORY     
 -------------------------------
 Character        8.1970000     
 Logical          4.40000000E-02
 Integer          5.3360000     
 Real             2.6080000     
 -------------------------------
 Total            16.185000     
 Virtual          0.0000000     
 -------------------------------



 Run end date and time (yyyy/mm/dd hh:mm:ss): 2023/10/30  9:14:14
 Elapsed run time:  0.029 Seconds
 Normal termination of simulation.
