                             MODFLOW 6 PROFESSIONAL
                U.S. GEOLOGICAL SURVEY MODULAR HYDROLOGIC MODEL
                  VERSION 6.5.0.dev0 (preliminary) 07/13/2023
                               ***DEVELOP MODE***

        MODFLOW 6 compiled Oct 30 2023 08:23:02 with GCC version 11.3.0

This software is preliminary or provisional and is subject to 
revision. It is being provided to meet the need for timely best 
science. The software has not received final approval by the U.S. 
Geological Survey (USGS). No warranty, expressed or implied, is made 
by the USGS or the U.S. Government as to the functionality of the 
software and related material nor shall the fact of release 
constitute any such warranty. The software is provided on the 
condition that neither the USGS nor the U.S. Government shall be held 
liable for any damages resulting from the authorized or unauthorized 
use of the software.


As a work of the United States Government, this USGS product is 
in the public domain within the United States. You can copy, 
modify, distribute, and perform the work, even for commercial 
purposes, all without asking permission. Additionally, USGS 
waives copyright and related rights in the work worldwide 
through CC0 1.0 Universal Public Domain Dedication 
(https://creativecommons.org/publicdomain/zero/1.0/).

The following GNU Lesser General Public License (LGPL) libraries
are used in this USGS product:

    SPARSKIT version 2.0
      ilut, luson, and qsplit 
      (https://www-users.cse.umn.edu/~saad/software/SPARSKIT/)

    RCM - Reverse Cuthill McKee Ordering
      (https://people.math.sc.edu/Burkardt/f_src/rcm/rcm.html)

    BLAS - Basic Linear Algebra Subprograms Level 1
      (https://people.math.sc.edu/Burkardt/f_src/blas1_d/blas1_d.html)

    SPARSEKIT - Sparse Matrix Utility Package
      amux, dperm, dvperm, rperm, and cperm
      (https://people.sc.fsu.edu/~jburkardt/f77_src/sparsekit/sparsekit.html)

The following BSD-3 License libraries are used in this USGS product:

    Modern Fortran DAG Library
      Copyright (c) 2018, Jacob Williams
      All rights reserved.
      (https://github.com/jacobwilliams/daglib)

The following 2-clause BSD License library is used in this
USGS product:

    PETSc, the Portable, Extensible Toolkit for Scientific
    Computation Library
      Copyright (c) 1991-2021, UChicago Argonne, LLC
      and the PETSc Development Team All rights reserved.
      (https://petsc.org/release/)

MODFLOW 6 compiler options: -cpp -I src/libmf6core.a.p -I src -I ../src -I
src/libmf6_external.a.p -I
/home/mreno/.clone/external/petsc/arch-linux-c-debug/include -I
/home/mreno/.clone/external/petsc/include -I
/home/mreno/.clone/external/petsc/arch-linux-c-debug/lib -I
/home/mreno/miniconda3/envs/modflow6/include -I -fdiagnostics-color=always
-imultiarch x86_64-linux-gnu -D _FILE_OFFSET_BITS=64 -D __linux__ -D
__WITH_PETSC__ -D __WITH_MPI__ -D __WITH_NETCDF__ -mtune=generic
-march=x86-64 -g -O2 -Wall -Wpedantic -Wcharacter-truncation
-Wno-unused-dummy-argument -Wno-intrinsic-shadow -Wno-maybe-uninitialized
-Wno-uninitialized -std=f2008 -fall-intrinsics -fbacktrace -fcheck=all
-ffpe-trap=overflow,zero,invalid -ffpe-summary=overflow
-ffpe-trap=overflow,zero,invalid -fPIC -J src/libmf6core.a.p
-fpre-include=/usr/include/finclude/math-vector-fortran.h

System command used to initiate simulation:
/home/mreno/.clone/usgs/w/netcdf/2/modflow6/bin/mf6

MODFLOW was compiled using uniform precision.

Real Variables
  KIND: 8
  TINY (smallest non-zero value):    2.225074-308
  HUGE (largest value):    1.797693+308
  PRECISION: 15
  SIZE IN BITS: 64

Integer Variables
  KIND: 4
  HUGE (largest value): 2147483647
  SIZE IN BITS: 32

Long Integer Variables
  KIND: 8
  HUGE (largest value): 9223372036854775807
  SIZE IN BITS: 64

Logical Variables
  KIND: 4
  SIZE IN BITS: 32


 OPENED mfsim.nam
 FILE TYPE:NAM6      UNIT 1001   STATUS:OLD                 
 FORMAT:FORMATTED              ACCESS:SEQUENTIAL          
 ACTION:READ                

 # File generated by Flopy version 3.5.0.dev0 on 10/30/2023 at 09:08:53.

 OPENED evt02.nam
 FILE TYPE:GWF6      UNIT 1002   STATUS:OLD                 
 FORMAT:FORMATTED              ACCESS:SEQUENTIAL          
 ACTION:READ                

 # File generated by Flopy version 3.5.0.dev0 on 10/30/2023 at 09:08:53.
Model NetCDF4 Input "evt02.nc" opened NF90_NOWRITE, ncid=65536
IDM nc modeltype=GWF6
IDM load netcdf var model=GWF6, ptype=DIS6
IDM nc4_context pkg cname=EVT02, scname=DIS
IDM load nc model ctype=GWF
IDM load netcdf var model=GWF6, ptype=DIS6, sctype=DIS
Input parameter "NLAY" discovered for package "EVT02/DIS".
IDM load netcdf var model=GWF6, ptype=DIS6
IDM nc4_context pkg cname=EVT02, scname=DIS
IDM load nc model ctype=GWF
IDM load netcdf var model=GWF6, ptype=DIS6, sctype=DIS
Input parameter "NROW" discovered for package "EVT02/DIS".
IDM load netcdf var model=GWF6, ptype=DIS6
IDM nc4_context pkg cname=EVT02, scname=DIS
IDM load nc model ctype=GWF
IDM load netcdf var model=GWF6, ptype=DIS6, sctype=DIS
Input parameter "NCOL" discovered for package "EVT02/DIS".
IDM load netcdf var model=GWF6, ptype=DIS6
IDM nc4_context pkg cname=EVT02, scname=DIS
IDM load nc model ctype=GWF
IDM load netcdf var model=GWF6, ptype=DIS6, sctype=DIS
Input parameter "DELR" discovered for package "EVT02/DIS".
IDM load netcdf var model=GWF6, ptype=DIS6
IDM nc4_context pkg cname=EVT02, scname=DIS
IDM load nc model ctype=GWF
IDM load netcdf var model=GWF6, ptype=DIS6, sctype=DIS
Input parameter "DELC" discovered for package "EVT02/DIS".
IDM load netcdf var model=GWF6, ptype=DIS6
IDM nc4_context pkg cname=EVT02, scname=DIS
IDM load nc model ctype=GWF
IDM load netcdf var model=GWF6, ptype=DIS6, sctype=DIS
Input parameter "TOP" discovered for package "EVT02/DIS".
IDM load netcdf var model=GWF6, ptype=DIS6
IDM nc4_context pkg cname=EVT02, scname=DIS
IDM load nc model ctype=GWF
IDM load netcdf var model=GWF6, ptype=DIS6, sctype=DIS
Input parameter "BOTM" discovered for package "EVT02/DIS".
IDM load netcdf var model=GWF6, ptype=NPF6
IDM nc4_context pkg cname=EVT02, scname=DIS
IDM nc4_context pkg cname=EVT02, scname=NPF
IDM load nc model ctype=GWF
IDM load netcdf var model=GWF6, ptype=NPF6, sctype=NPF
Input parameter "SAVE_FLOWS" discovered for package "EVT02/NPF".
IDM load netcdf var model=GWF6, ptype=NPF6
IDM nc4_context pkg cname=EVT02, scname=DIS
IDM nc4_context pkg cname=EVT02, scname=NPF
IDM load nc model ctype=GWF
IDM load netcdf var model=GWF6, ptype=NPF6, sctype=NPF
Input parameter "ICELLTYPE" discovered for package "EVT02/NPF".
IDM load netcdf var model=GWF6, ptype=NPF6
IDM nc4_context pkg cname=EVT02, scname=DIS
IDM nc4_context pkg cname=EVT02, scname=NPF
IDM load nc model ctype=GWF
IDM load netcdf var model=GWF6, ptype=NPF6, sctype=NPF
Input parameter "K" discovered for package "EVT02/NPF".
IDM load netcdf var model=GWF6, ptype=CHD6
IDM nc4_context pkg cname=EVT02, scname=DIS
IDM nc4_context pkg cname=EVT02, scname=NPF
IDM nc4_context pkg cname=EVT02, scname=EVT_0
IDM nc4_context pkg cname=EVT02, scname=CHD_0
IDM load nc model ctype=GWF
IDM load netcdf var model=GWF6, ptype=CHD6, sctype=CHD
Input parameter "MAXBOUND" discovered for package "EVT02/CHD_0".
IDM load netcdf var model=GWF6, ptype=CHD6
IDM nc4_context pkg cname=EVT02, scname=DIS
IDM nc4_context pkg cname=EVT02, scname=NPF
IDM nc4_context pkg cname=EVT02, scname=EVT_0
IDM nc4_context pkg cname=EVT02, scname=CHD_0
IDM load nc model ctype=GWF
IDM load netcdf var model=GWF6, ptype=CHD6
IDM nc4_context pkg cname=EVT02, scname=DIS
IDM nc4_context pkg cname=EVT02, scname=NPF
IDM nc4_context pkg cname=EVT02, scname=EVT_0
IDM nc4_context pkg cname=EVT02, scname=CHD_0
IDM load nc model ctype=GWF
IDM load netcdf var model=GWF6, ptype=CHD6, sctype=CHD
Input parameter "CELLID" discovered for package "EVT02/CHD_0".
IDM load netcdf var model=GWF6, ptype=CHD6
IDM nc4_context pkg cname=EVT02, scname=DIS
IDM nc4_context pkg cname=EVT02, scname=NPF
IDM nc4_context pkg cname=EVT02, scname=EVT_0
IDM nc4_context pkg cname=EVT02, scname=CHD_0
IDM load nc model ctype=GWF
IDM load netcdf var model=GWF6, ptype=CHD6, sctype=CHD
Input parameter "HEAD" discovered for package "EVT02/CHD_0".
IDM load netcdf var model=GWF6, ptype=EVT6
IDM nc4_context pkg cname=EVT02, scname=DIS
IDM nc4_context pkg cname=EVT02, scname=NPF
IDM nc4_context pkg cname=EVT02, scname=EVT_0
IDM load nc model ctype=GWF
IDM load netcdf var model=GWF6, ptype=EVT6, sctype=EVT
Input parameter "PRINT_FLOWS" discovered for package "EVT02/EVT_0".
IDM load netcdf var model=GWF6, ptype=EVT6
IDM nc4_context pkg cname=EVT02, scname=DIS
IDM nc4_context pkg cname=EVT02, scname=NPF
IDM nc4_context pkg cname=EVT02, scname=EVT_0
IDM load nc model ctype=GWF
IDM load netcdf var model=GWF6, ptype=EVT6, sctype=EVT
Input parameter "SURF_RATE_SPECIFIED" discovered for package "EVT02/EVT_0".
IDM load netcdf var model=GWF6, ptype=EVT6
IDM nc4_context pkg cname=EVT02, scname=DIS
IDM nc4_context pkg cname=EVT02, scname=NPF
IDM nc4_context pkg cname=EVT02, scname=EVT_0
IDM load nc model ctype=GWF
IDM load netcdf var model=GWF6, ptype=EVT6, sctype=EVT
Input parameter "MAXBOUND" discovered for package "EVT02/EVT_0".
IDM load netcdf var model=GWF6, ptype=EVT6
IDM nc4_context pkg cname=EVT02, scname=DIS
IDM nc4_context pkg cname=EVT02, scname=NPF
IDM nc4_context pkg cname=EVT02, scname=EVT_0
IDM load nc model ctype=GWF
IDM load netcdf var model=GWF6, ptype=EVT6, sctype=EVT
Input parameter "NSEG" discovered for package "EVT02/EVT_0".
IDM load netcdf var model=GWF6, ptype=EVT6
IDM nc4_context pkg cname=EVT02, scname=DIS
IDM nc4_context pkg cname=EVT02, scname=NPF
IDM nc4_context pkg cname=EVT02, scname=EVT_0
IDM load nc model ctype=GWF
IDM load netcdf var model=GWF6, ptype=EVT6
IDM nc4_context pkg cname=EVT02, scname=DIS
IDM nc4_context pkg cname=EVT02, scname=NPF
IDM nc4_context pkg cname=EVT02, scname=EVT_0
IDM load nc model ctype=GWF
IDM load netcdf var model=GWF6, ptype=EVT6, sctype=EVT
Input parameter "CELLID" discovered for package "EVT02/EVT_0".
IDM load netcdf var model=GWF6, ptype=EVT6
IDM nc4_context pkg cname=EVT02, scname=DIS
IDM nc4_context pkg cname=EVT02, scname=NPF
IDM nc4_context pkg cname=EVT02, scname=EVT_0
IDM load nc model ctype=GWF
IDM load netcdf var model=GWF6, ptype=EVT6, sctype=EVT
Input parameter "SURFACE" discovered for package "EVT02/EVT_0".
IDM load netcdf var model=GWF6, ptype=EVT6
IDM nc4_context pkg cname=EVT02, scname=DIS
IDM nc4_context pkg cname=EVT02, scname=NPF
IDM nc4_context pkg cname=EVT02, scname=EVT_0
IDM load nc model ctype=GWF
IDM load netcdf var model=GWF6, ptype=EVT6, sctype=EVT
Input parameter "RATE" discovered for package "EVT02/EVT_0".
IDM load netcdf var model=GWF6, ptype=EVT6
IDM nc4_context pkg cname=EVT02, scname=DIS
IDM nc4_context pkg cname=EVT02, scname=NPF
IDM nc4_context pkg cname=EVT02, scname=EVT_0
IDM load nc model ctype=GWF
IDM load netcdf var model=GWF6, ptype=EVT6, sctype=EVT
Input parameter "DEPTH" discovered for package "EVT02/EVT_0".
IDM load netcdf var model=GWF6, ptype=EVT6
IDM nc4_context pkg cname=EVT02, scname=DIS
IDM nc4_context pkg cname=EVT02, scname=NPF
IDM nc4_context pkg cname=EVT02, scname=EVT_0
IDM load nc model ctype=GWF
IDM load netcdf var model=GWF6, ptype=EVT6, sctype=EVT
Input parameter "PETM0" discovered for package "EVT02/EVT_0".
IDM input_load pkg=DIS
IDM NF90_MAX_DIMS=1024
IDM NF90_MAX_VAR_DIMS=1024
varname=NLAY, type=INTEGER
varname=NROW, type=INTEGER
varname=NCOL, type=INTEGER
varname=DELR, type=DOUBLE1D
varname=DELC, type=DOUBLE1D
varname=TOP, type=DOUBLE2D
varname=BOTM, type=DOUBLE3D
    ALL SIMULATION MEMORY INFORMATION WILL BE WRITTEN.

 DETAILED INFORMATION ON VARIABLES STORED IN THE MEMORY MANAGER
 -----------------------------------------------------------------------------------------------------------------------------------------------------------------------------
 ORIGIN                                             VARIABLE NAME    DATA TYPE             NUMBER OF ITEMS ASSOCIATED VARIABLE                                                
 -----------------------------------------------------------------------------------------------------------------------------------------------------------------------------
 __INPUT__/SIM/NAM                                  TDIS6            STRING LEN=300                      1 --                                                                 
 __INPUT__/SIM/NAM                                  MTYPE            STRING LEN=300                      1 --                                                                 
 __INPUT__/SIM/NAM                                  MFNAME           STRING LEN=300                      1 --                                                                 
 __INPUT__/SIM/NAM                                  MNAME            STRING LEN=300                      1 --                                                                 
 __INPUT__/SIM/NAM                                  EXGTYPE          STRING LEN=300                      0 --                                                                 
 __INPUT__/SIM/NAM                                  EXGFILE          STRING LEN=300                      0 --                                                                 
 __INPUT__/SIM/NAM                                  EXGMNAMEA        STRING LEN=300                      0 --                                                                 
 __INPUT__/SIM/NAM                                  EXGMNAMEB        STRING LEN=300                      0 --                                                                 
 __INPUT__/SIM/NAM                                  SOLUTIONGROUPNUM INTEGER                             1 --                                                                 
 __INPUT__/SIM/NAM                                  SLNTYPE          STRING LEN=300                      1 --                                                                 
 __INPUT__/SIM/NAM                                  SLNFNAME         STRING LEN=300                      1 --                                                                 
 __INPUT__/SIM/NAM                                  SLNMNAMES        STRING LEN=300                      1 --                                                                 
 __INPUT__/SIM/NAM                                  CONTINUE         INTEGER                             1 --                                                                 
 __INPUT__/SIM/NAM                                  NOCHECK          INTEGER                             1 --                                                                 
 __INPUT__/SIM/NAM                                  PRMEM            STRING LEN=300                      1 --                                                                 
 __INPUT__/SIM/NAM                                  MAXERRORS        INTEGER                             1 --                                                                 
 __INPUT__/SIM/NAM                                  PRINT_INPUT      INTEGER                             1 --                                                                 
 __INPUT__/SIM/NAM                                  MXITER           INTEGER                             1 --                                                                 
 __INPUT__/SIM                                      NUMMODELS        INTEGER                             1 --                                                                 
 __INPUT__/SIM                                      NUMEXCHANGES     INTEGER                             1 --                                                                 
 __INPUT__/EVT02/NAM                                SAVE_FLOWS       INTEGER                             1 --                                                                 
 __INPUT__/EVT02/NAM                                FTYPE            STRING LEN=300                      6 --                                                                 
 __INPUT__/EVT02/NAM                                FNAME            STRING LEN=300                      6 --                                                                 
 __INPUT__/EVT02/NAM                                PNAME            STRING LEN=300                      6 --                                                                 
 __INPUT__/EVT02                                    PKGTYPES         STRING LEN=7                        0 --                                                                 
 __INPUT__/EVT02                                    PKGNAMES         STRING LEN=16                       0 --                                                                 
 __INPUT__/EVT02                                    MEMPATHS         STRING LEN=50                       0 --                                                                 
 __INPUT__/EVT02                                    INUNITS          INTEGER                             0 --                                                                 
 __INPUT__/EVT02/DIS                                INPUT_FNAME      STRING LEN=300                      1 --                                                                 
 __INPUT__/EVT02/NPF                                INPUT_FNAME      STRING LEN=300                      1 --                                                                 
 __INPUT__/EVT02/CHD_0                              INPUT_FNAME      STRING LEN=300                      1 --                                                                 
 __INPUT__/EVT02/EVT_0                              INPUT_FNAME      STRING LEN=300                      1 --                                                                 
 __INPUT__/EVT02/DIS                                NLAY             INTEGER                             1 --                                                                 
 __INPUT__/EVT02/DIS                                NROW             INTEGER                             1 --                                                                 
 __INPUT__/EVT02/DIS                                NCOL             INTEGER                             1 --                                                                 
 __INPUT__/EVT02                                    MODEL_SHAPE      INTEGER                             3 --                                                                 
 __INPUT__/EVT02                                    NCELLDIM         INTEGER                             1 --                                                                 
 __INPUT__/EVT02/DIS                                DELR             DOUBLE                              3 --                                                                 
 __INPUT__/EVT02/DIS                                DELC             DOUBLE                              1 --                                                                 
 __INPUT__/EVT02/DIS                                TOP              DOUBLE                              3 --                                                                 
 __INPUT__/EVT02/DIS                                BOTM             DOUBLE                              3 --                                                                 
 -----------------------------------------------------------------------------------------------------------------------------------------------------------------------------



 MEMORY MANAGER TOTAL STORAGE BY DATA TYPE, IN KILOBYTES
 -------------------------------
                    ALLOCATED   
 DATA TYPE           MEMORY     
 -------------------------------
 Character        1.8240000     
 Logical          0.0000000     
 Integer          6.40000000E-02
 Real             8.00000000E-02
 -------------------------------
 Total            1.9680000     
 Virtual          0.0000000     
 -------------------------------


IDM input_load pkg=NPF
IDM NF90_MAX_DIMS=1024
IDM NF90_MAX_VAR_DIMS=1024
varname=IPAKCB, type=KEYWORD
varname=ICELLTYPE, type=INTEGER1D
varname=K, type=DOUBLE1D
    ALL SIMULATION MEMORY INFORMATION WILL BE WRITTEN.

 DETAILED INFORMATION ON VARIABLES STORED IN THE MEMORY MANAGER
 -----------------------------------------------------------------------------------------------------------------------------------------------------------------------------
 ORIGIN                                             VARIABLE NAME    DATA TYPE             NUMBER OF ITEMS ASSOCIATED VARIABLE                                                
 -----------------------------------------------------------------------------------------------------------------------------------------------------------------------------
 __INPUT__/SIM/NAM                                  TDIS6            STRING LEN=300                      1 --                                                                 
 __INPUT__/SIM/NAM                                  MTYPE            STRING LEN=300                      1 --                                                                 
 __INPUT__/SIM/NAM                                  MFNAME           STRING LEN=300                      1 --                                                                 
 __INPUT__/SIM/NAM                                  MNAME            STRING LEN=300                      1 --                                                                 
 __INPUT__/SIM/NAM                                  EXGTYPE          STRING LEN=300                      0 --                                                                 
 __INPUT__/SIM/NAM                                  EXGFILE          STRING LEN=300                      0 --                                                                 
 __INPUT__/SIM/NAM                                  EXGMNAMEA        STRING LEN=300                      0 --                                                                 
 __INPUT__/SIM/NAM                                  EXGMNAMEB        STRING LEN=300                      0 --                                                                 
 __INPUT__/SIM/NAM                                  SOLUTIONGROUPNUM INTEGER                             1 --                                                                 
 __INPUT__/SIM/NAM                                  SLNTYPE          STRING LEN=300                      1 --                                                                 
 __INPUT__/SIM/NAM                                  SLNFNAME         STRING LEN=300                      1 --                                                                 
 __INPUT__/SIM/NAM                                  SLNMNAMES        STRING LEN=300                      1 --                                                                 
 __INPUT__/SIM/NAM                                  CONTINUE         INTEGER                             1 --                                                                 
 __INPUT__/SIM/NAM                                  NOCHECK          INTEGER                             1 --                                                                 
 __INPUT__/SIM/NAM                                  PRMEM            STRING LEN=300                      1 --                                                                 
 __INPUT__/SIM/NAM                                  MAXERRORS        INTEGER                             1 --                                                                 
 __INPUT__/SIM/NAM                                  PRINT_INPUT      INTEGER                             1 --                                                                 
 __INPUT__/SIM/NAM                                  MXITER           INTEGER                             1 --                                                                 
 __INPUT__/SIM                                      NUMMODELS        INTEGER                             1 --                                                                 
 __INPUT__/SIM                                      NUMEXCHANGES     INTEGER                             1 --                                                                 
 __INPUT__/EVT02/NAM                                SAVE_FLOWS       INTEGER                             1 --                                                                 
 __INPUT__/EVT02/NAM                                FTYPE            STRING LEN=300                      6 --                                                                 
 __INPUT__/EVT02/NAM                                FNAME            STRING LEN=300                      6 --                                                                 
 __INPUT__/EVT02/NAM                                PNAME            STRING LEN=300                      6 --                                                                 
 __INPUT__/EVT02                                    PKGTYPES         STRING LEN=7                        0 --                                                                 
 __INPUT__/EVT02                                    PKGNAMES         STRING LEN=16                       0 --                                                                 
 __INPUT__/EVT02                                    MEMPATHS         STRING LEN=50                       0 --                                                                 
 __INPUT__/EVT02                                    INUNITS          INTEGER                             0 --                                                                 
 __INPUT__/EVT02/DIS                                INPUT_FNAME      STRING LEN=300                      1 --                                                                 
 __INPUT__/EVT02/NPF                                INPUT_FNAME      STRING LEN=300                      1 --                                                                 
 __INPUT__/EVT02/CHD_0                              INPUT_FNAME      STRING LEN=300                      1 --                                                                 
 __INPUT__/EVT02/EVT_0                              INPUT_FNAME      STRING LEN=300                      1 --                                                                 
 __INPUT__/EVT02/DIS                                NLAY             INTEGER                             1 --                                                                 
 __INPUT__/EVT02/DIS                                NROW             INTEGER                             1 --                                                                 
 __INPUT__/EVT02/DIS                                NCOL             INTEGER                             1 --                                                                 
 __INPUT__/EVT02                                    MODEL_SHAPE      INTEGER                             3 --                                                                 
 __INPUT__/EVT02                                    NCELLDIM         INTEGER                             1 --                                                                 
 __INPUT__/EVT02/DIS                                DELR             DOUBLE                              3 --                                                                 
 __INPUT__/EVT02/DIS                                DELC             DOUBLE                              1 --                                                                 
 __INPUT__/EVT02/DIS                                TOP              DOUBLE                              3 --                                                                 
 __INPUT__/EVT02/DIS                                BOTM             DOUBLE                              3 --                                                                 
 __INPUT__/EVT02/NPF                                IPAKCB           INTEGER                             1 --                                                                 
 __INPUT__/EVT02/NPF                                ICELLTYPE        INTEGER                             3 --                                                                 
 __INPUT__/EVT02/NPF                                K                DOUBLE                              3 --                                                                 
 -----------------------------------------------------------------------------------------------------------------------------------------------------------------------------



 MEMORY MANAGER TOTAL STORAGE BY DATA TYPE, IN KILOBYTES
 -------------------------------
                    ALLOCATED   
 DATA TYPE           MEMORY     
 -------------------------------
 Character        1.8240000     
 Logical          0.0000000     
 Integer          8.00000000E-02
 Real             0.10400000    
 -------------------------------
 Total            2.0080000     
 Virtual          0.0000000     
 -------------------------------



 OPENED evt02.ic
 FILE TYPE:IC6       UNIT 1003   STATUS:OLD                 
 FORMAT:FORMATTED              ACCESS:SEQUENTIAL          
 ACTION:READ                


 OPENED evt02.oc
 FILE TYPE:OC6       UNIT 1004   STATUS:OLD                 
 FORMAT:FORMATTED              ACCESS:SEQUENTIAL          
 ACTION:READ                

IDM input_load pkg=EVT_0
IDM NF90_MAX_DIMS=1024
IDM NF90_MAX_VAR_DIMS=1024
varname=IPRFLOW, type=KEYWORD
varname=SURFRATESPEC, type=KEYWORD
varname=MAXBOUND, type=INTEGER
varname=NSEG, type=INTEGER
    ALL SIMULATION MEMORY INFORMATION WILL BE WRITTEN.

 DETAILED INFORMATION ON VARIABLES STORED IN THE MEMORY MANAGER
 -----------------------------------------------------------------------------------------------------------------------------------------------------------------------------
 ORIGIN                                             VARIABLE NAME    DATA TYPE             NUMBER OF ITEMS ASSOCIATED VARIABLE                                                
 -----------------------------------------------------------------------------------------------------------------------------------------------------------------------------
 __INPUT__/SIM/NAM                                  TDIS6            STRING LEN=300                      1 --                                                                 
 __INPUT__/SIM/NAM                                  MTYPE            STRING LEN=300                      1 --                                                                 
 __INPUT__/SIM/NAM                                  MFNAME           STRING LEN=300                      1 --                                                                 
 __INPUT__/SIM/NAM                                  MNAME            STRING LEN=300                      1 --                                                                 
 __INPUT__/SIM/NAM                                  EXGTYPE          STRING LEN=300                      0 --                                                                 
 __INPUT__/SIM/NAM                                  EXGFILE          STRING LEN=300                      0 --                                                                 
 __INPUT__/SIM/NAM                                  EXGMNAMEA        STRING LEN=300                      0 --                                                                 
 __INPUT__/SIM/NAM                                  EXGMNAMEB        STRING LEN=300                      0 --                                                                 
 __INPUT__/SIM/NAM                                  SOLUTIONGROUPNUM INTEGER                             1 --                                                                 
 __INPUT__/SIM/NAM                                  SLNTYPE          STRING LEN=300                      1 --                                                                 
 __INPUT__/SIM/NAM                                  SLNFNAME         STRING LEN=300                      1 --                                                                 
 __INPUT__/SIM/NAM                                  SLNMNAMES        STRING LEN=300                      1 --                                                                 
 __INPUT__/SIM/NAM                                  CONTINUE         INTEGER                             1 --                                                                 
 __INPUT__/SIM/NAM                                  NOCHECK          INTEGER                             1 --                                                                 
 __INPUT__/SIM/NAM                                  PRMEM            STRING LEN=300                      1 --                                                                 
 __INPUT__/SIM/NAM                                  MAXERRORS        INTEGER                             1 --                                                                 
 __INPUT__/SIM/NAM                                  PRINT_INPUT      INTEGER                             1 --                                                                 
 __INPUT__/SIM/NAM                                  MXITER           INTEGER                             1 --                                                                 
 __INPUT__/SIM                                      NUMMODELS        INTEGER                             1 --                                                                 
 __INPUT__/SIM                                      NUMEXCHANGES     INTEGER                             1 --                                                                 
 __INPUT__/EVT02/NAM                                SAVE_FLOWS       INTEGER                             1 --                                                                 
 __INPUT__/EVT02/NAM                                FTYPE            STRING LEN=300                      6 --                                                                 
 __INPUT__/EVT02/NAM                                FNAME            STRING LEN=300                      6 --                                                                 
 __INPUT__/EVT02/NAM                                PNAME            STRING LEN=300                      6 --                                                                 
 __INPUT__/EVT02                                    PKGTYPES         STRING LEN=7                        0 --                                                                 
 __INPUT__/EVT02                                    PKGNAMES         STRING LEN=16                       0 --                                                                 
 __INPUT__/EVT02                                    MEMPATHS         STRING LEN=50                       0 --                                                                 
 __INPUT__/EVT02                                    INUNITS          INTEGER                             0 --                                                                 
 __INPUT__/EVT02/DIS                                INPUT_FNAME      STRING LEN=300                      1 --                                                                 
 __INPUT__/EVT02/NPF                                INPUT_FNAME      STRING LEN=300                      1 --                                                                 
 __INPUT__/EVT02/CHD_0                              INPUT_FNAME      STRING LEN=300                      1 --                                                                 
 __INPUT__/EVT02/EVT_0                              INPUT_FNAME      STRING LEN=300                      1 --                                                                 
 __INPUT__/EVT02/DIS                                NLAY             INTEGER                             1 --                                                                 
 __INPUT__/EVT02/DIS                                NROW             INTEGER                             1 --                                                                 
 __INPUT__/EVT02/DIS                                NCOL             INTEGER                             1 --                                                                 
 __INPUT__/EVT02                                    MODEL_SHAPE      INTEGER                             3 --                                                                 
 __INPUT__/EVT02                                    NCELLDIM         INTEGER                             1 --                                                                 
 __INPUT__/EVT02/DIS                                DELR             DOUBLE                              3 --                                                                 
 __INPUT__/EVT02/DIS                                DELC             DOUBLE                              1 --                                                                 
 __INPUT__/EVT02/DIS                                TOP              DOUBLE                              3 --                                                                 
 __INPUT__/EVT02/DIS                                BOTM             DOUBLE                              3 --                                                                 
 __INPUT__/EVT02/NPF                                IPAKCB           INTEGER                             1 --                                                                 
 __INPUT__/EVT02/NPF                                ICELLTYPE        INTEGER                             3 --                                                                 
 __INPUT__/EVT02/NPF                                K                DOUBLE                              3 --                                                                 
 __INPUT__/EVT02/EVT_0                              IPRFLOW          INTEGER                             1 --                                                                 
 __INPUT__/EVT02/EVT_0                              SURFRATESPEC     INTEGER                             1 --                                                                 
 __INPUT__/EVT02/EVT_0                              NAUX             INTEGER                             1 --                                                                 
 __INPUT__/EVT02/EVT_0                              MAXBOUND         INTEGER                             1 --                                                                 
 __INPUT__/EVT02/EVT_0                              NSEG             INTEGER                             1 --                                                                 
 __INPUT__/EVT02/EVT_0                              IPER             INTEGER                             1 --                                                                 
 __INPUT__/EVT02/EVT_0                              IONPER           INTEGER                             1 --                                                                 
 __INPUT__/EVT02/EVT_0                              NBOUND           INTEGER                             1 --                                                                 
 __INPUT__/EVT02/EVT_0                              NCPL             INTEGER                             1 --                                                                 
 __INPUT__/EVT02/EVT_0                              AUXILIARY        STRING LEN=16                       0 --                                                                 
 __INPUT__/EVT02/EVT_0                              CELLID           INTEGER                             3 --                                                                 
 __INPUT__/EVT02/EVT_0                              SURFACE          DOUBLE                              1 --                                                                 
 __INPUT__/EVT02/EVT_0                              RATE             DOUBLE                              1 --                                                                 
 __INPUT__/EVT02/EVT_0                              DEPTH            DOUBLE                              1 --                                                                 
 __INPUT__/EVT02/EVT_0                              PETM0            DOUBLE                              1 --                                                                 
 __INPUT__/EVT02/EVT_0                              BOUNDNAME        STRING LEN=40                       0 --                                                                 
 __INPUT__/EVT02/EVT_0                              AUXVAR           DOUBLE                              0 --                                                                 
 -----------------------------------------------------------------------------------------------------------------------------------------------------------------------------



 MEMORY MANAGER TOTAL STORAGE BY DATA TYPE, IN KILOBYTES
 -------------------------------
                    ALLOCATED   
 DATA TYPE           MEMORY     
 -------------------------------
 Character        1.8240000     
 Logical          0.0000000     
 Integer          0.12800000    
 Real             0.13600000    
 -------------------------------
 Total            2.0880000     
 Virtual          0.0000000     
 -------------------------------


IDM input_load pkg=CHD_0
IDM NF90_MAX_DIMS=1024
IDM NF90_MAX_VAR_DIMS=1024
varname=MAXBOUND, type=INTEGER
    ALL SIMULATION MEMORY INFORMATION WILL BE WRITTEN.

 DETAILED INFORMATION ON VARIABLES STORED IN THE MEMORY MANAGER
 -----------------------------------------------------------------------------------------------------------------------------------------------------------------------------
 ORIGIN                                             VARIABLE NAME    DATA TYPE             NUMBER OF ITEMS ASSOCIATED VARIABLE                                                
 -----------------------------------------------------------------------------------------------------------------------------------------------------------------------------
 __INPUT__/SIM/NAM                                  TDIS6            STRING LEN=300                      1 --                                                                 
 __INPUT__/SIM/NAM                                  MTYPE            STRING LEN=300                      1 --                                                                 
 __INPUT__/SIM/NAM                                  MFNAME           STRING LEN=300                      1 --                                                                 
 __INPUT__/SIM/NAM                                  MNAME            STRING LEN=300                      1 --                                                                 
 __INPUT__/SIM/NAM                                  EXGTYPE          STRING LEN=300                      0 --                                                                 
 __INPUT__/SIM/NAM                                  EXGFILE          STRING LEN=300                      0 --                                                                 
 __INPUT__/SIM/NAM                                  EXGMNAMEA        STRING LEN=300                      0 --                                                                 
 __INPUT__/SIM/NAM                                  EXGMNAMEB        STRING LEN=300                      0 --                                                                 
 __INPUT__/SIM/NAM                                  SOLUTIONGROUPNUM INTEGER                             1 --                                                                 
 __INPUT__/SIM/NAM                                  SLNTYPE          STRING LEN=300                      1 --                                                                 
 __INPUT__/SIM/NAM                                  SLNFNAME         STRING LEN=300                      1 --                                                                 
 __INPUT__/SIM/NAM                                  SLNMNAMES        STRING LEN=300                      1 --                                                                 
 __INPUT__/SIM/NAM                                  CONTINUE         INTEGER                             1 --                                                                 
 __INPUT__/SIM/NAM                                  NOCHECK          INTEGER                             1 --                                                                 
 __INPUT__/SIM/NAM                                  PRMEM            STRING LEN=300                      1 --                                                                 
 __INPUT__/SIM/NAM                                  MAXERRORS        INTEGER                             1 --                                                                 
 __INPUT__/SIM/NAM                                  PRINT_INPUT      INTEGER                             1 --                                                                 
 __INPUT__/SIM/NAM                                  MXITER           INTEGER                             1 --                                                                 
 __INPUT__/SIM                                      NUMMODELS        INTEGER                             1 --                                                                 
 __INPUT__/SIM                                      NUMEXCHANGES     INTEGER                             1 --                                                                 
 __INPUT__/EVT02/NAM                                SAVE_FLOWS       INTEGER                             1 --                                                                 
 __INPUT__/EVT02/NAM                                FTYPE            STRING LEN=300                      6 --                                                                 
 __INPUT__/EVT02/NAM                                FNAME            STRING LEN=300                      6 --                                                                 
 __INPUT__/EVT02/NAM                                PNAME            STRING LEN=300                      6 --                                                                 
 __INPUT__/EVT02                                    PKGTYPES         STRING LEN=7                        0 --                                                                 
 __INPUT__/EVT02                                    PKGNAMES         STRING LEN=16                       0 --                                                                 
 __INPUT__/EVT02                                    MEMPATHS         STRING LEN=50                       0 --                                                                 
 __INPUT__/EVT02                                    INUNITS          INTEGER                             0 --                                                                 
 __INPUT__/EVT02/DIS                                INPUT_FNAME      STRING LEN=300                      1 --                                                                 
 __INPUT__/EVT02/NPF                                INPUT_FNAME      STRING LEN=300                      1 --                                                                 
 __INPUT__/EVT02/CHD_0                              INPUT_FNAME      STRING LEN=300                      1 --                                                                 
 __INPUT__/EVT02/EVT_0                              INPUT_FNAME      STRING LEN=300                      1 --                                                                 
 __INPUT__/EVT02/DIS                                NLAY             INTEGER                             1 --                                                                 
 __INPUT__/EVT02/DIS                                NROW             INTEGER                             1 --                                                                 
 __INPUT__/EVT02/DIS                                NCOL             INTEGER                             1 --                                                                 
 __INPUT__/EVT02                                    MODEL_SHAPE      INTEGER                             3 --                                                                 
 __INPUT__/EVT02                                    NCELLDIM         INTEGER                             1 --                                                                 
 __INPUT__/EVT02/DIS                                DELR             DOUBLE                              3 --                                                                 
 __INPUT__/EVT02/DIS                                DELC             DOUBLE                              1 --                                                                 
 __INPUT__/EVT02/DIS                                TOP              DOUBLE                              3 --                                                                 
 __INPUT__/EVT02/DIS                                BOTM             DOUBLE                              3 --                                                                 
 __INPUT__/EVT02/NPF                                IPAKCB           INTEGER                             1 --                                                                 
 __INPUT__/EVT02/NPF                                ICELLTYPE        INTEGER                             3 --                                                                 
 __INPUT__/EVT02/NPF                                K                DOUBLE                              3 --                                                                 
 __INPUT__/EVT02/EVT_0                              IPRFLOW          INTEGER                             1 --                                                                 
 __INPUT__/EVT02/EVT_0                              SURFRATESPEC     INTEGER                             1 --                                                                 
 __INPUT__/EVT02/EVT_0                              NAUX             INTEGER                             1 --                                                                 
 __INPUT__/EVT02/EVT_0                              MAXBOUND         INTEGER                             1 --                                                                 
 __INPUT__/EVT02/EVT_0                              NSEG             INTEGER                             1 --                                                                 
 __INPUT__/EVT02/EVT_0                              IPER             INTEGER                             1 --                                                                 
 __INPUT__/EVT02/EVT_0                              IONPER           INTEGER                             1 --                                                                 
 __INPUT__/EVT02/EVT_0                              NBOUND           INTEGER                             1 --                                                                 
 __INPUT__/EVT02/EVT_0                              NCPL             INTEGER                             1 --                                                                 
 __INPUT__/EVT02/EVT_0                              AUXILIARY        STRING LEN=16                       0 --                                                                 
 __INPUT__/EVT02/EVT_0                              CELLID           INTEGER                             3 --                                                                 
 __INPUT__/EVT02/EVT_0                              SURFACE          DOUBLE                              1 --                                                                 
 __INPUT__/EVT02/EVT_0                              RATE             DOUBLE                              1 --                                                                 
 __INPUT__/EVT02/EVT_0                              DEPTH            DOUBLE                              1 --                                                                 
 __INPUT__/EVT02/EVT_0                              PETM0            DOUBLE                              1 --                                                                 
 __INPUT__/EVT02/EVT_0                              BOUNDNAME        STRING LEN=40                       0 --                                                                 
 __INPUT__/EVT02/EVT_0                              AUXVAR           DOUBLE                              0 --                                                                 
 __INPUT__/EVT02/CHD_0                              NAUX             INTEGER                             1 --                                                                 
 __INPUT__/EVT02/CHD_0                              MAXBOUND         INTEGER                             1 --                                                                 
 __INPUT__/EVT02/CHD_0                              IPER             INTEGER                             1 --                                                                 
 __INPUT__/EVT02/CHD_0                              IONPER           INTEGER                             1 --                                                                 
 __INPUT__/EVT02/CHD_0                              NBOUND           INTEGER                             1 --                                                                 
 __INPUT__/EVT02/CHD_0                              NCPL             INTEGER                             1 --                                                                 
 __INPUT__/EVT02/CHD_0                              AUXILIARY        STRING LEN=16                       0 --                                                                 
 __INPUT__/EVT02/CHD_0                              CELLID           INTEGER                             6 --                                                                 
 __INPUT__/EVT02/CHD_0                              HEAD             DOUBLE                              2 --                                                                 
 __INPUT__/EVT02/CHD_0                              BOUNDNAME        STRING LEN=40                       0 --                                                                 
 __INPUT__/EVT02/CHD_0                              AUXVAR           DOUBLE                              0 --                                                                 
 -----------------------------------------------------------------------------------------------------------------------------------------------------------------------------



 MEMORY MANAGER TOTAL STORAGE BY DATA TYPE, IN KILOBYTES
 -------------------------------
                    ALLOCATED   
 DATA TYPE           MEMORY     
 -------------------------------
 Character        1.8240000     
 Logical          0.0000000     
 Integer          0.17600000    
 Real             0.15200000    
 -------------------------------
 Total            2.1520000     
 Virtual          0.0000000     
 -------------------------------



 READING SIMULATION OPTIONS
    MAXIMUM NUMBER OF ERRORS THAT WILL BE STORED IS 1000
 END OF SIMULATION OPTIONS

 READING SIMULATION TIMING

 OPENED evt02.tdis
 FILE TYPE:TDIS   UNIT 1005   STATUS:OLD                 
 FORMAT:FORMATTED              ACCESS:SEQUENTIAL          
 ACTION:READ                


 TDIS -- TEMPORAL DISCRETIZATION PACKAGE,
 VERSION 1 : 11/13/2014 - INPUT READ FROM UNIT 1005
 # File generated by Flopy version 3.5.0.dev0 on 10/30/2023 at 09:08:53.
 PROCESSING TDIS OPTIONS
    SIMULATION TIME UNIT IS DAYS
 END OF TDIS OPTIONS
 PROCESSING TDIS DIMENSIONS
   50 STRESS PERIOD(S) IN SIMULATION
 END OF TDIS DIMENSIONS
 PROCESSING TDIS PERIODDATA


 STRESS PERIOD     LENGTH       TIME STEPS     MULTIPLIER FOR DELT
 ----------------------------------------------------------------------------
        1         1.000000          1                    1.000
        2         1.000000          1                    1.000
        3         1.000000          1                    1.000
        4         1.000000          1                    1.000
        5         1.000000          1                    1.000
        6         1.000000          1                    1.000
        7         1.000000          1                    1.000
        8         1.000000          1                    1.000
        9         1.000000          1                    1.000
       10         1.000000          1                    1.000
       11         1.000000          1                    1.000
       12         1.000000          1                    1.000
       13         1.000000          1                    1.000
       14         1.000000          1                    1.000
       15         1.000000          1                    1.000
       16         1.000000          1                    1.000
       17         1.000000          1                    1.000
       18         1.000000          1                    1.000
       19         1.000000          1                    1.000
       20         1.000000          1                    1.000
       21         1.000000          1                    1.000
       22         1.000000          1                    1.000
       23         1.000000          1                    1.000
       24         1.000000          1                    1.000
       25         1.000000          1                    1.000
       26         1.000000          1                    1.000
       27         1.000000          1                    1.000
       28         1.000000          1                    1.000
       29         1.000000          1                    1.000
       30         1.000000          1                    1.000
       31         1.000000          1                    1.000
       32         1.000000          1                    1.000
       33         1.000000          1                    1.000
       34         1.000000          1                    1.000
       35         1.000000          1                    1.000
       36         1.000000          1                    1.000
       37         1.000000          1                    1.000
       38         1.000000          1                    1.000
       39         1.000000          1                    1.000
       40         1.000000          1                    1.000
       41         1.000000          1                    1.000
       42         1.000000          1                    1.000
       43         1.000000          1                    1.000
       44         1.000000          1                    1.000
       45         1.000000          1                    1.000
       46         1.000000          1                    1.000
       47         1.000000          1                    1.000
       48         1.000000          1                    1.000
       49         1.000000          1                    1.000
       50         1.000000          1                    1.000
 END OF TDIS PERIODDATA
 END OF SIMULATION TIMING

 READING SIMULATION MODELS
    GWF6 model 1 will be created
 END OF SIMULATION MODELS

 READING SIMULATION EXCHANGES
 END OF SIMULATION EXCHANGES

 READING SOLUTIONGROUP

 Creating solution: SLN_1           

 OPENED evt02.ims
 FILE TYPE:IMS   UNIT 1007   STATUS:OLD                 
 FORMAT:FORMATTED              ACCESS:SEQUENTIAL          
 ACTION:READ                

 END OF SOLUTIONGROUP

PROCESSING MODEL CONNECTIONS

 IMS -- ITERATIVE MODEL SOLUTION PACKAGE, VERSION 6, 4/28/2017
         INPUT READ FROM UNIT 1007
 # File generated by Flopy version 3.5.0.dev0 on 10/30/2023 at 09:08:53.

 PROCESSING IMS OPTIONS
 END OF IMS OPTIONS

 PROCESSING IMS NONLINEAR
 END OF IMS NONLINEAR DATA
 **UNDER-RELAXATION WILL BE USED***


 PROCESSING LINEAR DATA
 END OF LINEAR DATA
 ***IMS LINEAR SOLVER WILL BE USED***

 IMSLINEAR -- UNSTRUCTURED LINEAR SOLUTION PACKAGE, VERSION 8, 04/28/2017
 An asymmetric matrix will be solved

 OUTER ITERATION CONVERGENCE CRITERION    (DVCLOSE) =    0.100000E-08
 MAXIMUM NUMBER OF OUTER ITERATIONS        (MXITER) = 100
 SOLVER PRINTOUT INDEX                     (IPRIMS) = 1
 NONLINEAR ITERATION METHOD            (NONLINMETH) = 3
 LINEAR SOLUTION METHOD                   (LINMETH) = 1
 UNDER-RELAXATION WEIGHT REDUCTION FACTOR   (THETA) =    0.100000E+01
 UNDER-RELAXATION WEIGHT INCREASE INCREMENT (KAPPA) =    0.000000E+00
 UNDER-RELAXATION PREVIOUS HISTORY FACTOR   (GAMMA) =    0.100000E+01
 UNDER-RELAXATION MOMENTUM TERM         (AMOMENTUM) =    0.000000E+00

       SOLUTION BY THE BICONJUGATE-GRADIENT STABILIZED METHOD
 ------------------------------------------------------------------
 MAXIMUM OF 100 CALLS OF SOLUTION ROUTINE
 MAXIMUM OF 300 INTERNAL ITERATIONS PER CALL TO SOLUTION ROUTINE
 LINEAR ACCELERATION METHOD            = BCGS      
 MATRIX PRECONDITIONING TYPE           = MOD. INCOMPLETE LU  
 MATRIX SCALING APPROACH               = NO SCALING          
 MATRIX REORDERING APPROACH            = ORIGINAL ORDERING        
 NUMBER OF ORTHOGONALIZATIONS          = 0
 HEAD CHANGE CRITERION FOR CLOSURE     =    0.10000E-08
 RESIDUAL CHANGE CRITERION FOR CLOSURE =    0.10000E-02
 RESIDUAL CONVERGENCE OPTION           = 0
 RESIDUAL CONVERGENCE NORM             = INFINITY NORM   
 RELAXATION FACTOR                     =    0.97000E+00




    Solving:  Stress period:     1    Time step:     1

1
                            STRESS PERIOD NO. 1, LENGTH =   1.000000    
                            -----------------------------------------------
                            NUMBER OF TIME STEPS = 1
                            MULTIPLIER FOR DELT =     1.000
IDM inlist_rp iiper=1
IDM RP LIST kper=1
IDM RP LIST varname=CELLID, type=INTEGER1D
Found INODATA CELLIDsize m=3size n=1
CELLID FIRST SET nbound=1
IDM RP LIST varname=SURFACE, type=DOUBLE
IDM RP LIST varname=RATE, type=DOUBLE
IDM RP LIST varname=DEPTH, type=DOUBLE
IDM RP LIST varname=PETM0, type=DOUBLE
IDM inlist_rp iiper=1
IDM RP LIST kper=1
IDM RP LIST varname=CELLID, type=INTEGER1D
Found INODATA CELLIDsize m=3size n=2
CELLID FIRST SET nbound=2
IDM RP LIST varname=HEAD, type=DOUBLE
                            INITIAL TIME STEP SIZE =   1.000000    

 SLN_1 OUTER ITERATION SUMMARY
 ----------------------------------------------------------------------------------------------------------
                                OUTER      INNER                    STEP   MAXIMUM CHANGE MODEL-(CELLID) OR
 OUTER ITERATION STEP       ITERATION  ITERATION  MAXIMUM CHANGE SUCCESS             MODEL-PACKAGE-(NUMBER)
 ----------------------------------------------------------------------------------------------------------
 Model                              1          0       0.0000000       *                      1_GWF-(1,1,2)
 ----------------------------------------------------------------------------------------------------------


 1 CALLS TO NUMERICAL SOLUTION IN TIME STEP 1 STRESS PERIOD 1
 0 TOTAL ITERATIONS

    Solving:  Stress period:     2    Time step:     1

1
                            STRESS PERIOD NO. 2, LENGTH =   1.000000    
                            -----------------------------------------------
                            NUMBER OF TIME STEPS = 1
                            MULTIPLIER FOR DELT =     1.000
IDM inlist_rp iiper=2
IDM RP LIST kper=2
IDM RP LIST varname=CELLID, type=INTEGER1D
Found INODATA CELLIDsize m=3size n=2
CELLID FIRST SET nbound=2
IDM RP LIST varname=HEAD, type=DOUBLE
                            INITIAL TIME STEP SIZE =   1.000000    

 SLN_1 OUTER ITERATION SUMMARY
 ----------------------------------------------------------------------------------------------------------
                                OUTER      INNER                    STEP   MAXIMUM CHANGE MODEL-(CELLID) OR
 OUTER ITERATION STEP       ITERATION  ITERATION  MAXIMUM CHANGE SUCCESS             MODEL-PACKAGE-(NUMBER)
 ----------------------------------------------------------------------------------------------------------
 Model                              1          2       2.0204082                              1_GWF-(1,1,2)
 Model                              2          1       0.0000000       *                      1_GWF-(1,1,2)
 ----------------------------------------------------------------------------------------------------------


 2 CALLS TO NUMERICAL SOLUTION IN TIME STEP 1 STRESS PERIOD 2
 3 TOTAL ITERATIONS

    Solving:  Stress period:     3    Time step:     1

1
                            STRESS PERIOD NO. 3, LENGTH =   1.000000    
                            -----------------------------------------------
                            NUMBER OF TIME STEPS = 1
                            MULTIPLIER FOR DELT =     1.000
IDM inlist_rp iiper=3
IDM RP LIST kper=3
IDM RP LIST varname=CELLID, type=INTEGER1D
Found INODATA CELLIDsize m=3size n=2
CELLID FIRST SET nbound=2
IDM RP LIST varname=HEAD, type=DOUBLE
                            INITIAL TIME STEP SIZE =   1.000000    

 SLN_1 OUTER ITERATION SUMMARY
 ----------------------------------------------------------------------------------------------------------
                                OUTER      INNER                    STEP   MAXIMUM CHANGE MODEL-(CELLID) OR
 OUTER ITERATION STEP       ITERATION  ITERATION  MAXIMUM CHANGE SUCCESS             MODEL-PACKAGE-(NUMBER)
 ----------------------------------------------------------------------------------------------------------
 Model                              1          1       2.0204082                              1_GWF-(1,1,2)
 Model                              2          2 -4.49841533E-08                              1_GWF-(1,1,2)
 Model                              3          1       0.0000000       *                      1_GWF-(1,1,2)
 ----------------------------------------------------------------------------------------------------------


 3 CALLS TO NUMERICAL SOLUTION IN TIME STEP 1 STRESS PERIOD 3
 4 TOTAL ITERATIONS

    Solving:  Stress period:     4    Time step:     1

1
                            STRESS PERIOD NO. 4, LENGTH =   1.000000    
                            -----------------------------------------------
                            NUMBER OF TIME STEPS = 1
                            MULTIPLIER FOR DELT =     1.000
IDM inlist_rp iiper=4
IDM RP LIST kper=4
IDM RP LIST varname=CELLID, type=INTEGER1D
Found INODATA CELLIDsize m=3size n=2
CELLID FIRST SET nbound=2
IDM RP LIST varname=HEAD, type=DOUBLE
                            INITIAL TIME STEP SIZE =   1.000000    

 SLN_1 OUTER ITERATION SUMMARY
 ----------------------------------------------------------------------------------------------------------
                                OUTER      INNER                    STEP   MAXIMUM CHANGE MODEL-(CELLID) OR
 OUTER ITERATION STEP       ITERATION  ITERATION  MAXIMUM CHANGE SUCCESS             MODEL-PACKAGE-(NUMBER)
 ----------------------------------------------------------------------------------------------------------
 Model                              1          1       2.0204063                              1_GWF-(1,1,2)
 Model                              2          2  3.24997469E-07                              1_GWF-(1,1,2)
 Model                              3          1       0.0000000       *                      1_GWF-(1,1,2)
 ----------------------------------------------------------------------------------------------------------


 3 CALLS TO NUMERICAL SOLUTION IN TIME STEP 1 STRESS PERIOD 4
 4 TOTAL ITERATIONS

    Solving:  Stress period:     5    Time step:     1

1
                            STRESS PERIOD NO. 5, LENGTH =   1.000000    
                            -----------------------------------------------
                            NUMBER OF TIME STEPS = 1
                            MULTIPLIER FOR DELT =     1.000
IDM inlist_rp iiper=5
IDM RP LIST kper=5
IDM RP LIST varname=CELLID, type=INTEGER1D
Found INODATA CELLIDsize m=3size n=2
CELLID FIRST SET nbound=2
IDM RP LIST varname=HEAD, type=DOUBLE
                            INITIAL TIME STEP SIZE =   1.000000    

 SLN_1 OUTER ITERATION SUMMARY
 ----------------------------------------------------------------------------------------------------------
                                OUTER      INNER                    STEP   MAXIMUM CHANGE MODEL-(CELLID) OR
 OUTER ITERATION STEP       ITERATION  ITERATION  MAXIMUM CHANGE SUCCESS             MODEL-PACKAGE-(NUMBER)
 ----------------------------------------------------------------------------------------------------------
 Model                              1          1       2.0204069                              1_GWF-(1,1,2)
 Model                              2          2  3.57211952E-07                              1_GWF-(1,1,2)
 Model                              3          1       0.0000000       *                      1_GWF-(1,1,2)
 ----------------------------------------------------------------------------------------------------------


 3 CALLS TO NUMERICAL SOLUTION IN TIME STEP 1 STRESS PERIOD 5
 4 TOTAL ITERATIONS

    Solving:  Stress period:     6    Time step:     1

1
                            STRESS PERIOD NO. 6, LENGTH =   1.000000    
                            -----------------------------------------------
                            NUMBER OF TIME STEPS = 1
                            MULTIPLIER FOR DELT =     1.000
IDM inlist_rp iiper=6
IDM RP LIST kper=6
IDM RP LIST varname=CELLID, type=INTEGER1D
Found INODATA CELLIDsize m=3size n=2
CELLID FIRST SET nbound=2
IDM RP LIST varname=HEAD, type=DOUBLE
                            INITIAL TIME STEP SIZE =   1.000000    

 SLN_1 OUTER ITERATION SUMMARY
 ----------------------------------------------------------------------------------------------------------
                                OUTER      INNER                    STEP   MAXIMUM CHANGE MODEL-(CELLID) OR
 OUTER ITERATION STEP       ITERATION  ITERATION  MAXIMUM CHANGE SUCCESS             MODEL-PACKAGE-(NUMBER)
 ----------------------------------------------------------------------------------------------------------
 Model                              1          1       2.0204073                              1_GWF-(1,1,2)
 Model                              2          2  3.39660129E-07                              1_GWF-(1,1,2)
 Model                              3          1       0.0000000       *                      1_GWF-(1,1,2)
 ----------------------------------------------------------------------------------------------------------


 3 CALLS TO NUMERICAL SOLUTION IN TIME STEP 1 STRESS PERIOD 6
 4 TOTAL ITERATIONS

    Solving:  Stress period:     7    Time step:     1

1
                            STRESS PERIOD NO. 7, LENGTH =   1.000000    
                            -----------------------------------------------
                            NUMBER OF TIME STEPS = 1
                            MULTIPLIER FOR DELT =     1.000
IDM inlist_rp iiper=7
IDM RP LIST kper=7
IDM RP LIST varname=CELLID, type=INTEGER1D
Found INODATA CELLIDsize m=3size n=2
CELLID FIRST SET nbound=2
IDM RP LIST varname=HEAD, type=DOUBLE
                            INITIAL TIME STEP SIZE =   1.000000    

 SLN_1 OUTER ITERATION SUMMARY
 ----------------------------------------------------------------------------------------------------------
                                OUTER      INNER                    STEP   MAXIMUM CHANGE MODEL-(CELLID) OR
 OUTER ITERATION STEP       ITERATION  ITERATION  MAXIMUM CHANGE SUCCESS             MODEL-PACKAGE-(NUMBER)
 ----------------------------------------------------------------------------------------------------------
 Model                              1          1       2.0204075                              1_GWF-(1,1,2)
 Model                              2          2  3.12900031E-07                              1_GWF-(1,1,2)
 Model                              3          1       0.0000000       *                      1_GWF-(1,1,2)
 ----------------------------------------------------------------------------------------------------------


 3 CALLS TO NUMERICAL SOLUTION IN TIME STEP 1 STRESS PERIOD 7
 4 TOTAL ITERATIONS

    Solving:  Stress period:     8    Time step:     1

1
                            STRESS PERIOD NO. 8, LENGTH =   1.000000    
                            -----------------------------------------------
                            NUMBER OF TIME STEPS = 1
                            MULTIPLIER FOR DELT =     1.000
IDM inlist_rp iiper=8
IDM RP LIST kper=8
IDM RP LIST varname=CELLID, type=INTEGER1D
Found INODATA CELLIDsize m=3size n=2
CELLID FIRST SET nbound=2
IDM RP LIST varname=HEAD, type=DOUBLE
                            INITIAL TIME STEP SIZE =   1.000000    

 SLN_1 OUTER ITERATION SUMMARY
 ----------------------------------------------------------------------------------------------------------
                                OUTER      INNER                    STEP   MAXIMUM CHANGE MODEL-(CELLID) OR
 OUTER ITERATION STEP       ITERATION  ITERATION  MAXIMUM CHANGE SUCCESS             MODEL-PACKAGE-(NUMBER)
 ----------------------------------------------------------------------------------------------------------
 Model                              1          1       2.0204076                              1_GWF-(1,1,2)
 Model                              2          2  2.86466593E-07                              1_GWF-(1,1,2)
 Model                              3          1       0.0000000       *                      1_GWF-(1,1,2)
 ----------------------------------------------------------------------------------------------------------


 3 CALLS TO NUMERICAL SOLUTION IN TIME STEP 1 STRESS PERIOD 8
 4 TOTAL ITERATIONS

    Solving:  Stress period:     9    Time step:     1

1
                            STRESS PERIOD NO. 9, LENGTH =   1.000000    
                            -----------------------------------------------
                            NUMBER OF TIME STEPS = 1
                            MULTIPLIER FOR DELT =     1.000
IDM inlist_rp iiper=9
IDM RP LIST kper=9
IDM RP LIST varname=CELLID, type=INTEGER1D
Found INODATA CELLIDsize m=3size n=2
CELLID FIRST SET nbound=2
IDM RP LIST varname=HEAD, type=DOUBLE
                            INITIAL TIME STEP SIZE =   1.000000    

 SLN_1 OUTER ITERATION SUMMARY
 ----------------------------------------------------------------------------------------------------------
                                OUTER      INNER                    STEP   MAXIMUM CHANGE MODEL-(CELLID) OR
 OUTER ITERATION STEP       ITERATION  ITERATION  MAXIMUM CHANGE SUCCESS             MODEL-PACKAGE-(NUMBER)
 ----------------------------------------------------------------------------------------------------------
 Model                              1          1       2.0204077                              1_GWF-(1,1,2)
 Model                              2          2  2.62650886E-07                              1_GWF-(1,1,2)
 Model                              3          1       0.0000000       *                      1_GWF-(1,1,2)
 ----------------------------------------------------------------------------------------------------------


 3 CALLS TO NUMERICAL SOLUTION IN TIME STEP 1 STRESS PERIOD 9
 4 TOTAL ITERATIONS

    Solving:  Stress period:    10    Time step:     1

1
                            STRESS PERIOD NO. 10, LENGTH =   1.000000    
                            -----------------------------------------------
                            NUMBER OF TIME STEPS = 1
                            MULTIPLIER FOR DELT =     1.000
IDM inlist_rp iiper=10
IDM RP LIST kper=10
IDM RP LIST varname=CELLID, type=INTEGER1D
Found INODATA CELLIDsize m=3size n=2
CELLID FIRST SET nbound=2
IDM RP LIST varname=HEAD, type=DOUBLE
                            INITIAL TIME STEP SIZE =   1.000000    

 SLN_1 OUTER ITERATION SUMMARY
 ----------------------------------------------------------------------------------------------------------
                                OUTER      INNER                    STEP   MAXIMUM CHANGE MODEL-(CELLID) OR
 OUTER ITERATION STEP       ITERATION  ITERATION  MAXIMUM CHANGE SUCCESS             MODEL-PACKAGE-(NUMBER)
 ----------------------------------------------------------------------------------------------------------
 Model                              1          1       2.0204078                              1_GWF-(1,1,2)
 Model                              2          2  2.41765044E-07                              1_GWF-(1,1,2)
 Model                              3          1       0.0000000       *                      1_GWF-(1,1,2)
 ----------------------------------------------------------------------------------------------------------


 3 CALLS TO NUMERICAL SOLUTION IN TIME STEP 1 STRESS PERIOD 10
 4 TOTAL ITERATIONS

    Solving:  Stress period:    11    Time step:     1

1
                            STRESS PERIOD NO. 11, LENGTH =   1.000000    
                            -----------------------------------------------
                            NUMBER OF TIME STEPS = 1
                            MULTIPLIER FOR DELT =     1.000
IDM inlist_rp iiper=11
IDM RP LIST kper=11
IDM RP LIST varname=CELLID, type=INTEGER1D
Found INODATA CELLIDsize m=3size n=2
CELLID FIRST SET nbound=2
IDM RP LIST varname=HEAD, type=DOUBLE
                            INITIAL TIME STEP SIZE =   1.000000    

 SLN_1 OUTER ITERATION SUMMARY
 ----------------------------------------------------------------------------------------------------------
                                OUTER      INNER                    STEP   MAXIMUM CHANGE MODEL-(CELLID) OR
 OUTER ITERATION STEP       ITERATION  ITERATION  MAXIMUM CHANGE SUCCESS             MODEL-PACKAGE-(NUMBER)
 ----------------------------------------------------------------------------------------------------------
 Model                              1          1       2.0204078                              1_GWF-(1,1,2)
 Model                              2          2  2.23568012E-07                              1_GWF-(1,1,2)
 Model                              3          1       0.0000000       *                      1_GWF-(1,1,2)
 ----------------------------------------------------------------------------------------------------------


 3 CALLS TO NUMERICAL SOLUTION IN TIME STEP 1 STRESS PERIOD 11
 4 TOTAL ITERATIONS

    Solving:  Stress period:    12    Time step:     1

1
                            STRESS PERIOD NO. 12, LENGTH =   1.000000    
                            -----------------------------------------------
                            NUMBER OF TIME STEPS = 1
                            MULTIPLIER FOR DELT =     1.000
IDM inlist_rp iiper=12
IDM RP LIST kper=12
IDM RP LIST varname=CELLID, type=INTEGER1D
Found INODATA CELLIDsize m=3size n=2
CELLID FIRST SET nbound=2
IDM RP LIST varname=HEAD, type=DOUBLE
                            INITIAL TIME STEP SIZE =   1.000000    

 SLN_1 OUTER ITERATION SUMMARY
 ----------------------------------------------------------------------------------------------------------
                                OUTER      INNER                    STEP   MAXIMUM CHANGE MODEL-(CELLID) OR
[...]
 SLN_1                                              HCHOLD           DOUBLE                              3 --                                                                 
 SLN_1                                              DEOLD            DOUBLE                              3 --                                                                 
 SLN_1                                              CONVMODSTART     INTEGER                             2 --                                                                 
 TMPSLN_1                                           CONVNMOD         INTEGER                             1 --                                                                 
 TMPSLN_1                                           NITERMAX         INTEGER                             1 --                                                                 
 TMPSLN_1                                           ITINNER          INTEGER                             1 --                                                                 
 TMPSLN_1                                           LOCDV            INTEGER                             1 --                                                                 
 TMPSLN_1                                           DVMAX            DOUBLE                              1 --                                                                 
 TMPSLN_1                                           LOCDR            INTEGER                             1 --                                                                 
 TMPSLN_1                                           DRMAX            DOUBLE                              1 --                                                                 
 TMPSLN_1                                           CONVDVMAX        DOUBLE                              1 --                                                                 
 TMPSLN_1                                           CONVLOCDV        INTEGER                             1 --                                                                 
 TMPSLN_1                                           CONVDRMAX        DOUBLE                              1 --                                                                 
 TMPSLN_1                                           CONVLOCDR        INTEGER                             1 --                                                                 
 EVT02                                              X                DOUBLE                              3 SLN_1/X                                                            
 EVT02                                              RHS              DOUBLE                              3 SLN_1/RHS                                                          
 EVT02                                              IBOUND           INTEGER                             3 SLN_1/IBOUND                                                       
 SLN_1                                              NROW             INTEGER                             1 --                                                                 
 SLN_1                                              NCOL             INTEGER                             1 --                                                                 
 SLN_1                                              NJA              INTEGER                             1 --                                                                 
 SLN_1                                              IA               INTEGER                             4 --                                                                 
 SLN_1                                              JA               INTEGER                             7 --                                                                 
 SLN_1                                              AMAT             DOUBLE                              7 --                                                                 
 EVT02/IC                                           STRT             DOUBLE                              3 --                                                                 
 EVT02/EVT_0                                        NODELIST         INTEGER                             1 --                                                                 
 EVT02/EVT_0                                        NOUPDATEAUXVAR   INTEGER                             0 --                                                                 
 EVT02/EVT_0                                        BOUND            DOUBLE                              4 --                                                                 
 EVT02/EVT_0                                        CONDINPUT        DOUBLE                              0 --                                                                 
 EVT02/EVT_0                                        HCOF             DOUBLE                              1 --                                                                 
 EVT02/EVT_0                                        RHS              DOUBLE                              1 --                                                                 
 EVT02/EVT_0                                        SIMVALS          DOUBLE                              1 --                                                                 
 EVT02/EVT_0                                        SIMTOMVR         DOUBLE                              0 --                                                                 
 EVT02/EVT_0                                        AUXVAR           DOUBLE                              0 --                                                                 
 EVT02/EVT_0                                        BOUNDNAME        STRING LEN=40                       0 --                                                                 
 EVT02/EVT_0                                        BOUNDNAME_CST    STRING LEN=40                       0 --                                                                 
 EVT02/EVT_0                                        CELLID           INTEGER                             3 __INPUT__/EVT02/EVT_0/CELLID                                       
 EVT02/EVT_0                                        BOUNDNAME_IDM    STRING LEN=40                       0 __INPUT__/EVT02/EVT_0/BOUNDNAME                                    
 EVT02/EVT_0                                        AUXVAR_IDM       DOUBLE                              0 __INPUT__/EVT02/EVT_0/AUXVAR                                       
 EVT02/EVT_0                                        SURFACE          DOUBLE                              1 __INPUT__/EVT02/EVT_0/SURFACE                                      
 EVT02/EVT_0                                        RATE             DOUBLE                              1 __INPUT__/EVT02/EVT_0/RATE                                         
 EVT02/EVT_0                                        DEPTH            DOUBLE                              1 __INPUT__/EVT02/EVT_0/DEPTH                                        
 EVT02/EVT_0                                        PETM0            DOUBLE                              1 __INPUT__/EVT02/EVT_0/PETM0                                        
 EVT02/CHD_0                                        NODELIST         INTEGER                             2 --                                                                 
 EVT02/CHD_0                                        NOUPDATEAUXVAR   INTEGER                             0 --                                                                 
 EVT02/CHD_0                                        BOUND            DOUBLE                              2 --                                                                 
 EVT02/CHD_0                                        CONDINPUT        DOUBLE                              0 --                                                                 
 EVT02/CHD_0                                        HCOF             DOUBLE                              2 --                                                                 
 EVT02/CHD_0                                        RHS              DOUBLE                              2 --                                                                 
 EVT02/CHD_0                                        SIMVALS          DOUBLE                              2 --                                                                 
 EVT02/CHD_0                                        SIMTOMVR         DOUBLE                              0 --                                                                 
 EVT02/CHD_0                                        AUXVAR           DOUBLE                              0 --                                                                 
 EVT02/CHD_0                                        BOUNDNAME        STRING LEN=40                       0 --                                                                 
 EVT02/CHD_0                                        BOUNDNAME_CST    STRING LEN=40                       0 --                                                                 
 EVT02/CHD_0                                        CELLID           INTEGER                             6 __INPUT__/EVT02/CHD_0/CELLID                                       
 EVT02/CHD_0                                        BOUNDNAME_IDM    STRING LEN=40                       0 __INPUT__/EVT02/CHD_0/BOUNDNAME                                    
 EVT02/CHD_0                                        AUXVAR_IDM       DOUBLE                              0 __INPUT__/EVT02/CHD_0/AUXVAR                                       
 EVT02/CHD_0                                        RATECHDIN        DOUBLE                              2 --                                                                 
 EVT02/CHD_0                                        RATECHDOUT       DOUBLE                              2 --                                                                 
 EVT02/CHD_0                                        HEAD             DOUBLE                              2 __INPUT__/EVT02/CHD_0/HEAD                                         
 SLN_1/IMSLINEAR                                    DVCLOSE          DOUBLE                              1 --                                                                 
 SLN_1/IMSLINEAR                                    RCLOSE           DOUBLE                              1 --                                                                 
 SLN_1/IMSLINEAR                                    ICNVGOPT         INTEGER                             1 --                                                                 
 SLN_1/IMSLINEAR                                    ITER1            INTEGER                             1 --                                                                 
 SLN_1/IMSLINEAR                                    ILINMETH         INTEGER                             1 --                                                                 
 SLN_1/IMSLINEAR                                    ISCL             INTEGER                             1 --                                                                 
 SLN_1/IMSLINEAR                                    IORD             INTEGER                             1 --                                                                 
 SLN_1/IMSLINEAR                                    NORTH            INTEGER                             1 --                                                                 
 SLN_1/IMSLINEAR                                    RELAX            DOUBLE                              1 --                                                                 
 SLN_1/IMSLINEAR                                    LEVEL            INTEGER                             1 --                                                                 
 SLN_1/IMSLINEAR                                    DROPTOL          DOUBLE                              1 --                                                                 
 SLN_1/IMSLINEAR                                    IDFPARAM         INTEGER                             1 --                                                                 
 SLN_1/IMSLINEAR                                    NJA              INTEGER                             1 --                                                                 
 SLN_1/IMSLINEAR                                    IOUT             INTEGER                             1 --                                                                 
 SLN_1/IMSLINEAR                                    IPC              INTEGER                             1 --                                                                 
 SLN_1/IMSLINEAR                                    IACPC            INTEGER                             1 --                                                                 
 SLN_1/IMSLINEAR                                    NITERC           INTEGER                             1 --                                                                 
 SLN_1/IMSLINEAR                                    NIABCGS          INTEGER                             1 --                                                                 
 SLN_1/IMSLINEAR                                    NIAPC            INTEGER                             1 --                                                                 
 SLN_1/IMSLINEAR                                    NJAPC            INTEGER                             1 --                                                                 
 SLN_1/IMSLINEAR                                    EPFACT           DOUBLE                              1 --                                                                 
 SLN_1/IMSLINEAR                                    L2NORM0          DOUBLE                              1 --                                                                 
 SLN_1/IMSLINEAR                                    NJLU             INTEGER                             1 --                                                                 
 SLN_1/IMSLINEAR                                    NJW              INTEGER                             1 --                                                                 
 SLN_1/IMSLINEAR                                    NWLU             INTEGER                             1 --                                                                 
 SLN_1/IMSLINEAR                                    DSCALE           DOUBLE                              1 --                                                                 
 SLN_1/IMSLINEAR                                    DSCALE2          DOUBLE                              1 --                                                                 
 SLN_1/IMSLINEAR                                    IAPC             INTEGER                             4 --                                                                 
 SLN_1/IMSLINEAR                                    JAPC             INTEGER                             7 --                                                                 
 SLN_1/IMSLINEAR                                    APC              DOUBLE                              7 --                                                                 
 SLN_1/IMSLINEAR                                    IW               INTEGER                             3 --                                                                 
 SLN_1/IMSLINEAR                                    W                DOUBLE                              3 --                                                                 
 SLN_1/IMSLINEAR                                    JLU              INTEGER                             1 --                                                                 
 SLN_1/IMSLINEAR                                    JW               INTEGER                             1 --                                                                 
 SLN_1/IMSLINEAR                                    WLU              DOUBLE                              1 --                                                                 
 SLN_1/IMSLINEAR                                    LORDER           INTEGER                             1 --                                                                 
 SLN_1/IMSLINEAR                                    IORDER           INTEGER                             1 --                                                                 
 SLN_1/IMSLINEAR                                    IARO             INTEGER                             2 --                                                                 
 SLN_1/IMSLINEAR                                    JARO             INTEGER                             1 --                                                                 
 SLN_1/IMSLINEAR                                    ARO              DOUBLE                              1 --                                                                 
 SLN_1/IMSLINEAR                                    ID               INTEGER                             3 --                                                                 
 SLN_1/IMSLINEAR                                    D                DOUBLE                              3 --                                                                 
 SLN_1/IMSLINEAR                                    P                DOUBLE                              3 --                                                                 
 SLN_1/IMSLINEAR                                    Q                DOUBLE                              3 --                                                                 
 SLN_1/IMSLINEAR                                    Z                DOUBLE                              3 --                                                                 
 SLN_1/IMSLINEAR                                    T                DOUBLE                              3 --                                                                 
 SLN_1/IMSLINEAR                                    V                DOUBLE                              3 --                                                                 
 SLN_1/IMSLINEAR                                    DHAT             DOUBLE                              3 --                                                                 
 SLN_1/IMSLINEAR                                    PHAT             DOUBLE                              3 --                                                                 
 SLN_1/IMSLINEAR                                    QHAT             DOUBLE                              3 --                                                                 
 -----------------------------------------------------------------------------------------------------------------------------------------------------------------------------



 MEMORY MANAGER TOTAL STORAGE BY DATA TYPE, IN KILOBYTES
 -------------------------------
                    ALLOCATED   
 DATA TYPE           MEMORY     
 -------------------------------
 Character        6.7660000     
 Logical          4.00000000E-02
 Integer          3.5840000     
 Real             3.0320000     
 -------------------------------
 Total            13.422000     
 Virtual          0.0000000     
 -------------------------------



 Run end date and time (yyyy/mm/dd hh:mm:ss): 2023/10/30  9:08:54
 Elapsed run time:  0.027 Seconds
 Normal termination of simulation.
