                                 MODFLOW-2000
     U.S. GEOLOGICAL SURVEY MODULAR FINITE-DIFFERENCE GROUND-WATER FLOW MODEL
                          VERSION 1.18.01 06/20/2008


This model run combines GLOBAL and LIST output into this single file.

GLOBAL LISTING FILE: p3.lst
                        UNIT    6

OPENING P3MF2K.ba6
FILE TYPE:BAS6   UNIT    1   STATUS:OLD    
FORMAT:FORMATTED              ACCESS:SEQUENTIAL          

OPENING P3MF2K.bc6
FILE TYPE:BCF6   UNIT   11   STATUS:OLD    
FORMAT:FORMATTED              ACCESS:SEQUENTIAL          

OPENING p3.wel
FILE TYPE:WEL   UNIT   12   STATUS:OLD    
FORMAT:FORMATTED              ACCESS:SEQUENTIAL          

OPENING p3.sip
FILE TYPE:SIP   UNIT   19   STATUS:OLD    
FORMAT:FORMATTED              ACCESS:SEQUENTIAL          

OPENING p3.oc
FILE TYPE:OC   UNIT   22   STATUS:OLD    
FORMAT:FORMATTED              ACCESS:SEQUENTIAL          

OPENING p3.lmt
FILE TYPE:LMT6   UNIT   24   STATUS:OLD    
FORMAT:FORMATTED              ACCESS:SEQUENTIAL          

OPENING P3MF2K.dis
FILE TYPE:DIS   UNIT   10   STATUS:OLD    
FORMAT:FORMATTED              ACCESS:SEQUENTIAL          


DISCRETIZATION INPUT DATA READ FROM UNIT   10
   1 LAYERS        31 ROWS        46 COLUMNS
   1 STRESS PERIOD(S) IN SIMULATION
MODEL TIME UNIT IS DAYS
MODEL LENGTH UNIT IS UNDEFINED
THE GROUND-WATER TRANSPORT PROCESS IS INACTIVE

THE OBSERVATION PROCESS IS INACTIVE
THE SENSITIVITY PROCESS IS INACTIVE
THE PARAMETER-ESTIMATION PROCESS IS INACTIVE

MODE: FORWARD

 Confining bed flag for each layer:
  0

     12911  ELEMENTS OF GX ARRAY USED OUT OF      12911
      1426  ELEMENTS OF GZ ARRAY USED OUT OF       1426
      1426  ELEMENTS OF IG ARRAY USED OUT OF       1426

                    DELR =   10.0000    

                    DELC =   10.0000    

TOP ELEVATION OF LAYER 1 =   10.0000    

  MODEL LAYER BOTTOM EL. =   0.00000     FOR LAYER   1


STRESS PERIOD     LENGTH       TIME STEPS     MULTIPLIER FOR DELT    SS FLAG
----------------------------------------------------------------------------
       1         100.0000          1                    1.000         SS

STEADY-STATE SIMULATION




SIP5 -- STRONGLY IMPLICIT PROCEDURE SOLUTION PACKAGE
                   VERSION 5, 9/1/93 INPUT READ FROM UNIT   19
MAXIMUM OF  50 ITERATIONS ALLOWED FOR CLOSURE
 5 ITERATION PARAMETERS
      5759 ELEMENTS IN X ARRAY ARE USED BY SIP
       150 ELEMENTS IN IX ARRAY ARE USED BY SIP

      5759  ELEMENTS OF X ARRAY USED OUT OF       5759
         0  ELEMENTS OF Z ARRAY USED OUT OF          1
       150  ELEMENTS OF IX ARRAY USED OUT OF        150
         0  ELEMENTS OF XHS ARRAY USED OUT OF          1



         SOLUTION BY THE STRONGLY IMPLICIT PROCEDURE
         -------------------------------------------
MAXIMUM ITERATIONS ALLOWED FOR CLOSURE =       50
                ACCELERATION PARAMETER =     1.0000    
     HEAD CHANGE CRITERION FOR CLOSURE =    0.10000E-03
     SIP HEAD CHANGE PRINTOUT INTERVAL =        1

    5 ITERATION PARAMETERS CALCULATED FROM SPECIFIED WSEED = 0.00100000 :

 0.000000E+00 0.822172E+00 0.968377E+00 0.994377E+00 0.999000E+00

#2D TEST PROBLEM                                                                
#Uniform Flow Field                                                             
   1 LAYERS        31 ROWS        46 COLUMNS
   1 STRESS PERIOD(S) IN SIMULATION

BAS6 -- BASIC PACKAGE, VERSION 6, 1/11/2000 INPUT READ FROM UNIT    1
         5 ELEMENTS IN IR ARRAY ARE USED BY BAS

BCF6 -- BLOCK-CENTERED FLOW PACKAGE, VERSION 6, 1/11/2000
        INPUT READ FROM UNIT 11
STEADY-STATE SIMULATION
HEAD AT CELLS THAT CONVERT TO DRY=   0.0000    
WETTING CAPABILITY IS NOT ACTIVE
     LAYER  LAYER-TYPE CODE     INTERBLOCK T
     --------------------------------------------
        1            0          0 -- HARMONIC    
      1427 ELEMENTS IN RX ARRAY ARE USED BY BCF

WEL6 -- WELL PACKAGE, VERSION 6, 1/11/2000 INPUT READ FROM UNIT   12
No named parameters
MAXIMUM OF      4 ACTIVE WELLS AT ONE TIME
        16 ELEMENTS IN RX ARRAY ARE USED BY WEL

      1443  ELEMENTS OF RX ARRAY USED OUT OF       1443
         0  ELEMENTS OF RZ ARRAY USED OUT OF          1
         5  ELEMENTS OF IR ARRAY USED OUT OF          5
#2D TEST PROBLEM                                                                
#Uniform Flow Field                                                             



                    BOUNDARY ARRAY FOR LAYER   1
READING ON UNIT    1 WITH FORMAT: (20I4)              

      1  2  3  4  5  6  7  8  9 10 11 12 13 14 15 16 17 18 19 20 21 22 23 24 25 26 27 28 29 30 31 32 33 34 35 36 37 38 39 40
     41 42 43 44 45 46
............................................................................................................................
  1  -1  1  1  1  1  1  1  1  1  1  1  1  1  1  1  1  1  1  1  1  1  1  1  1  1  1  1  1  1  1  1  1  1  1  1  1  1  1  1  1
      1  1  1  1  1 -1
  2  -1  1  1  1  1  1  1  1  1  1  1  1  1  1  1  1  1  1  1  1  1  1  1  1  1  1  1  1  1  1  1  1  1  1  1  1  1  1  1  1
      1  1  1  1  1 -1
  3  -1  1  1  1  1  1  1  1  1  1  1  1  1  1  1  1  1  1  1  1  1  1  1  1  1  1  1  1  1  1  1  1  1  1  1  1  1  1  1  1
      1  1  1  1  1 -1
  4  -1  1  1  1  1  1  1  1  1  1  1  1  1  1  1  1  1  1  1  1  1  1  1  1  1  1  1  1  1  1  1  1  1  1  1  1  1  1  1  1
      1  1  1  1  1 -1
  5  -1  1  1  1  1  1  1  1  1  1  1  1  1  1  1  1  1  1  1  1  1  1  1  1  1  1  1  1  1  1  1  1  1  1  1  1  1  1  1  1
      1  1  1  1  1 -1
  6  -1  1  1  1  1  1  1  1  1  1  1  1  1  1  1  1  1  1  1  1  1  1  1  1  1  1  1  1  1  1  1  1  1  1  1  1  1  1  1  1
      1  1  1  1  1 -1
  7  -1  1  1  1  1  1  1  1  1  1  1  1  1  1  1  1  1  1  1  1  1  1  1  1  1  1  1  1  1  1  1  1  1  1  1  1  1  1  1  1
      1  1  1  1  1 -1
  8  -1  1  1  1  1  1  1  1  1  1  1  1  1  1  1  1  1  1  1  1  1  1  1  1  1  1  1  1  1  1  1  1  1  1  1  1  1  1  1  1
      1  1  1  1  1 -1
  9  -1  1  1  1  1  1  1  1  1  1  1  1  1  1  1  1  1  1  1  1  1  1  1  1  1  1  1  1  1  1  1  1  1  1  1  1  1  1  1  1
      1  1  1  1  1 -1
 10  -1  1  1  1  1  1  1  1  1  1  1  1  1  1  1  1  1  1  1  1  1  1  1  1  1  1  1  1  1  1  1  1  1  1  1  1  1  1  1  1
      1  1  1  1  1 -1
 11  -1  1  1  1  1  1  1  1  1  1  1  1  1  1  1  1  1  1  1  1  1  1  1  1  1  1  1  1  1  1  1  1  1  1  1  1  1  1  1  1
      1  1  1  1  1 -1
 12  -1  1  1  1  1  1  1  1  1  1  1  1  1  1  1  1  1  1  1  1  1  1  1  1  1  1  1  1  1  1  1  1  1  1  1  1  1  1  1  1
      1  1  1  1  1 -1
 13  -1  1  1  1  1  1  1  1  1  1  1  1  1  1  1  1  1  1  1  1  1  1  1  1  1  1  1  1  1  1  1  1  1  1  1  1  1  1  1  1
      1  1  1  1  1 -1
 14  -1  1  1  1  1  1  1  1  1  1  1  1  1  1  1  1  1  1  1  1  1  1  1  1  1  1  1  1  1  1  1  1  1  1  1  1  1  1  1  1
      1  1  1  1  1 -1
 15  -1  1  1  1  1  1  1  1  1  1  1  1  1  1  1  1  1  1  1  1  1  1  1  1  1  1  1  1  1  1  1  1  1  1  1  1  1  1  1  1
      1  1  1  1  1 -1
 16  -1  1  1  1  1  1  1  1  1  1  1  1  1  1  1  1  1  1  1  1  1  1  1  1  1  1  1  1  1  1  1  1  1  1  1  1  1  1  1  1
      1  1  1  1  1 -1
 17  -1  1  1  1  1  1  1  1  1  1  1  1  1  1  1  1  1  1  1  1  1  1  1  1  1  1  1  1  1  1  1  1  1  1  1  1  1  1  1  1
      1  1  1  1  1 -1
 18  -1  1  1  1  1  1  1  1  1  1  1  1  1  1  1  1  1  1  1  1  1  1  1  1  1  1  1  1  1  1  1  1  1  1  1  1  1  1  1  1
      1  1  1  1  1 -1
 19  -1  1  1  1  1  1  1  1  1  1  1  1  1  1  1  1  1  1  1  1  1  1  1  1  1  1  1  1  1  1  1  1  1  1  1  1  1  1  1  1
      1  1  1  1  1 -1
 20  -1  1  1  1  1  1  1  1  1  1  1  1  1  1  1  1  1  1  1  1  1  1  1  1  1  1  1  1  1  1  1  1  1  1  1  1  1  1  1  1
      1  1  1  1  1 -1
 21  -1  1  1  1  1  1  1  1  1  1  1  1  1  1  1  1  1  1  1  1  1  1  1  1  1  1  1  1  1  1  1  1  1  1  1  1  1  1  1  1
      1  1  1  1  1 -1
 22  -1  1  1  1  1  1  1  1  1  1  1  1  1  1  1  1  1  1  1  1  1  1  1  1  1  1  1  1  1  1  1  1  1  1  1  1  1  1  1  1
      1  1  1  1  1 -1
 23  -1  1  1  1  1  1  1  1  1  1  1  1  1  1  1  1  1  1  1  1  1  1  1  1  1  1  1  1  1  1  1  1  1  1  1  1  1  1  1  1
      1  1  1  1  1 -1
 24  -1  1  1  1  1  1  1  1  1  1  1  1  1  1  1  1  1  1  1  1  1  1  1  1  1  1  1  1  1  1  1  1  1  1  1  1  1  1  1  1
      1  1  1  1  1 -1
 25  -1  1  1  1  1  1  1  1  1  1  1  1  1  1  1  1  1  1  1  1  1  1  1  1  1  1  1  1  1  1  1  1  1  1  1  1  1  1  1  1
      1  1  1  1  1 -1
 26  -1  1  1  1  1  1  1  1  1  1  1  1  1  1  1  1  1  1  1  1  1  1  1  1  1  1  1  1  1  1  1  1  1  1  1  1  1  1  1  1
      1  1  1  1  1 -1
 27  -1  1  1  1  1  1  1  1  1  1  1  1  1  1  1  1  1  1  1  1  1  1  1  1  1  1  1  1  1  1  1  1  1  1  1  1  1  1  1  1
      1  1  1  1  1 -1
 28  -1  1  1  1  1  1  1  1  1  1  1  1  1  1  1  1  1  1  1  1  1  1  1  1  1  1  1  1  1  1  1  1  1  1  1  1  1  1  1  1
      1  1  1  1  1 -1
 29  -1  1  1  1  1  1  1  1  1  1  1  1  1  1  1  1  1  1  1  1  1  1  1  1  1  1  1  1  1  1  1  1  1  1  1  1  1  1  1  1
      1  1  1  1  1 -1
 30  -1  1  1  1  1  1  1  1  1  1  1  1  1  1  1  1  1  1  1  1  1  1  1  1  1  1  1  1  1  1  1  1  1  1  1  1  1  1  1  1
      1  1  1  1  1 -1
 31  -1  1  1  1  1  1  1  1  1  1  1  1  1  1  1  1  1  1  1  1  1  1  1  1  1  1  1  1  1  1  1  1  1  1  1  1  1  1  1  1
      1  1  1  1  1 -1

AQUIFER HEAD WILL BE SET TO  999.99     AT ALL NO-FLOW NODES (IBOUND=0).



                      INITIAL HEAD FOR LAYER   1
READING ON UNIT    1 WITH FORMAT: (10F13.0)           

          1          2          3          4          5          6          7          8          9         10         11
         12         13         14         15         16         17         18         19         20         21         22
         23         24         25         26         27         28         29         30         31         32         33
         34         35         36         37         38         39         40         41         42         43         44
         45         46
.........................................................................................................................
  1   7.292E-04 -9.926E-02 -0.199     -0.299     -0.399     -0.499     -0.599     -0.699     -0.799     -0.899     -0.999    
      -1.10      -1.20      -1.30      -1.40      -1.50      -1.60      -1.70      -1.80      -1.90      -2.00      -2.10    
      -2.20      -2.30      -2.40      -2.50      -2.60      -2.70      -2.80      -2.90      -3.00      -3.10      -3.20    
      -3.30      -3.40      -3.50      -3.60      -3.70      -3.80      -3.90      -4.00      -4.10      -4.20      -4.30    
      -4.40      -4.50    
  2   7.614E-04 -9.923E-02 -0.199     -0.299     -0.399     -0.499     -0.599     -0.699     -0.799     -0.899     -0.999    
      -1.10      -1.20      -1.30      -1.40      -1.50      -1.60      -1.70      -1.80      -1.90      -2.00      -2.10    
      -2.20      -2.30      -2.40      -2.50      -2.60      -2.70      -2.80      -2.90      -3.00      -3.10      -3.20    
      -3.30      -3.40      -3.50      -3.60      -3.70      -3.80      -3.90      -4.00      -4.10      -4.20      -4.30    
      -4.40      -4.50    
  3   7.943E-04 -9.919E-02 -0.199     -0.299     -0.399     -0.499     -0.599     -0.699     -0.799     -0.899     -0.999    
      -1.10      -1.20      -1.30      -1.40      -1.50      -1.60      -1.70      -1.80      -1.90      -2.00      -2.10    
      -2.20      -2.30      -2.40      -2.50      -2.60      -2.70      -2.80      -2.90      -3.00      -3.10      -3.20    
      -3.30      -3.40      -3.50      -3.60      -3.70      -3.80      -3.90      -4.00      -4.10      -4.20      -4.30    
      -4.40      -4.50    
  4   8.276E-04 -9.915E-02 -0.199     -0.299     -0.399     -0.499     -0.599     -0.699     -0.799     -0.899     -0.999    
      -1.10      -1.20      -1.30      -1.40      -1.50      -1.60      -1.70      -1.80      -1.90      -2.00      -2.10    
      -2.20      -2.30      -2.40      -2.50      -2.60      -2.70      -2.80      -2.90      -3.00      -3.10      -3.20    
      -3.30      -3.40      -3.50      -3.60      -3.70      -3.80      -3.90      -4.00      -4.10      -4.20      -4.30    
      -4.40      -4.50    
  5   8.611E-04 -9.912E-02 -0.199     -0.299     -0.399     -0.499     -0.599     -0.699     -0.799     -0.899     -0.999    
      -1.10      -1.20      -1.30      -1.40      -1.50      -1.60      -1.70      -1.80      -1.90      -2.00      -2.10    
      -2.20      -2.30      -2.40      -2.50      -2.60      -2.70      -2.80      -2.90      -3.00      -3.10      -3.20    
      -3.30      -3.40      -3.50      -3.60      -3.70      -3.80      -3.90      -4.00      -4.10      -4.20      -4.30    
      -4.40      -4.50    
  6   8.944E-04 -9.908E-02 -0.199     -0.299     -0.399     -0.499     -0.599     -0.699     -0.799     -0.899     -0.999    
      -1.10      -1.20      -1.30      -1.40      -1.50      -1.60      -1.70      -1.80      -1.90      -2.00      -2.10    
      -2.20      -2.30      -2.40      -2.50      -2.60      -2.70      -2.80      -2.90      -3.00      -3.10      -3.20    
      -3.30      -3.40      -3.50      -3.60      -3.70      -3.80      -3.90      -4.00      -4.10      -4.20      -4.30    
      -4.40      -4.50    
  7   9.271E-04 -9.904E-02 -0.199     -0.299     -0.399     -0.499     -0.599     -0.699     -0.799     -0.899     -0.999    
      -1.10      -1.20      -1.30      -1.40      -1.50      -1.60      -1.70      -1.80      -1.90      -2.00      -2.10    
      -2.20      -2.30      -2.40      -2.50      -2.60      -2.70      -2.80      -2.90      -3.00      -3.10      -3.20    
      -3.30      -3.40      -3.50      -3.60      -3.70      -3.80      -3.90      -4.00      -4.10      -4.20      -4.30    
      -4.40      -4.50    
  8   9.586E-04 -9.901E-02 -0.199     -0.299     -0.399     -0.499     -0.599     -0.699     -0.799     -0.899     -0.999    
      -1.10      -1.20      -1.30      -1.40      -1.50      -1.60      -1.70      -1.80      -1.90      -2.00      -2.10    
      -2.20      -2.30      -2.40      -2.50      -2.60      -2.70      -2.80      -2.90      -3.00      -3.10      -3.20    
      -3.30      -3.40      -3.50      -3.60      -3.70      -3.80      -3.90      -4.00      -4.10      -4.20      -4.30    
      -4.40      -4.50    
  9   9.886E-04 -9.897E-02 -0.199     -0.299     -0.399     -0.499     -0.599     -0.699     -0.799     -0.899     -0.999    
      -1.10      -1.20      -1.30      -1.40      -1.50      -1.60      -1.70      -1.80      -1.90      -2.00      -2.10    
      -2.20      -2.30      -2.40      -2.50      -2.60      -2.70      -2.80      -2.90      -3.00      -3.10      -3.20    
      -3.30      -3.40      -3.50      -3.60      -3.70      -3.80      -3.90      -4.00      -4.10      -4.20      -4.30    
      -4.40      -4.50    
 10   1.016E-03 -9.894E-02 -0.199     -0.299     -0.399     -0.499     -0.599     -0.699     -0.799     -0.898     -0.998    
      -1.10      -1.20      -1.30      -1.40      -1.50      -1.60      -1.70      -1.80      -1.90      -2.00      -2.10    
      -2.20      -2.30      -2.40      -2.50      -2.60      -2.70      -2.80      -2.90      -3.00      -3.10      -3.20    
      -3.30      -3.40      -3.50      -3.60      -3.70      -3.80      -3.90      -4.00      -4.10      -4.20      -4.30    
      -4.40      -4.50    
 11   1.041E-03 -9.891E-02 -0.199     -0.299     -0.399     -0.499     -0.599     -0.699     -0.798     -0.898     -0.998    
      -1.10      -1.20      -1.30      -1.40      -1.50      -1.60      -1.70      -1.80      -1.90      -2.00      -2.10    
      -2.20      -2.30      -2.40      -2.50      -2.60      -2.70      -2.80      -2.90      -3.00      -3.10      -3.20    
      -3.30      -3.40      -3.50      -3.60      -3.70      -3.80      -3.90      -4.00      -4.10      -4.20      -4.30    
      -4.40      -4.50    
 12   1.063E-03 -9.889E-02 -0.199     -0.299     -0.399     -0.499     -0.599     -0.698     -0.798     -0.898     -0.998    
      -1.10      -1.20      -1.30      -1.40      -1.50      -1.60      -1.70      -1.80      -1.90      -2.00      -2.10    
      -2.20      -2.30      -2.40      -2.50      -2.60      -2.70      -2.80      -2.90      -3.00      -3.10      -3.20    
      -3.30      -3.40      -3.50      -3.60      -3.70      -3.80      -3.90      -4.00      -4.10      -4.20      -4.30    
      -4.40      -4.50    
 13   1.080E-03 -9.887E-02 -0.199     -0.299     -0.399     -0.499     -0.599     -0.698     -0.798     -0.898     -0.998    
      -1.10      -1.20      -1.30      -1.40      -1.50      -1.60      -1.70      -1.80      -1.90      -2.00      -2.10    
      -2.20      -2.30      -2.40      -2.50      -2.60      -2.70      -2.80      -2.90      -3.00      -3.10      -3.20    
      -3.30      -3.40      -3.50      -3.60      -3.70      -3.80      -3.90      -4.00      -4.10      -4.20      -4.30    
      -4.40      -4.50    
 14   1.093E-03 -9.885E-02 -0.199     -0.299     -0.399     -0.499     -0.598     -0.698     -0.798     -0.898     -0.998    
      -1.10      -1.20      -1.30      -1.40      -1.50      -1.60      -1.70      -1.80      -1.90      -2.00      -2.10    
      -2.20      -2.30      -2.40      -2.50      -2.60      -2.70      -2.80      -2.90      -3.00      -3.10      -3.20    
      -3.30      -3.40      -3.50      -3.60      -3.70      -3.80      -3.90      -4.00      -4.10      -4.20      -4.30    
      -4.40      -4.50    
 15   1.101E-03 -9.884E-02 -0.199     -0.299     -0.399     -0.499     -0.598     -0.698     -0.798     -0.898     -0.998    
      -1.10      -1.20      -1.30      -1.40      -1.50      -1.60      -1.70      -1.80      -1.90      -2.00      -2.10    
      -2.20      -2.30      -2.40      -2.50      -2.60      -2.70      -2.80      -2.90      -3.00      -3.10      -3.20    
      -3.30      -3.40      -3.50      -3.60      -3.70      -3.80      -3.90      -4.00      -4.10      -4.20      -4.30    
      -4.40      -4.50    
 16   1.103E-03 -9.884E-02 -0.199     -0.299     -0.399     -0.499     -0.598     -0.698     -0.798     -0.898     -0.998    
      -1.10      -1.20      -1.30      -1.40      -1.49      -1.60      -1.70      -1.80      -1.90      -2.00      -2.10    
      -2.20      -2.30      -2.40      -2.50      -2.60      -2.70      -2.80      -2.90      -3.01      -3.10      -3.20    
      -3.30      -3.40      -3.50      -3.60      -3.70      -3.80      -3.90      -4.00      -4.10      -4.20      -4.30    
      -4.40      -4.50    
 17   1.101E-03 -9.884E-02 -0.199     -0.299     -0.399     -0.499     -0.598     -0.698     -0.798     -0.898     -0.998    
      -1.10      -1.20      -1.30      -1.40      -1.50      -1.60      -1.70      -1.80      -1.90      -2.00      -2.10    
      -2.20      -2.30      -2.40      -2.50      -2.60      -2.70      -2.80      -2.90      -3.00      -3.10      -3.20    
      -3.30      -3.40      -3.50      -3.60      -3.70      -3.80      -3.90      -4.00      -4.10      -4.20      -4.30    
      -4.40      -4.50    
 18   1.093E-03 -9.885E-02 -0.199     -0.299     -0.399     -0.499     -0.598     -0.698     -0.798     -0.898     -0.998    
      -1.10      -1.20      -1.30      -1.40      -1.50      -1.60      -1.70      -1.80      -1.90      -2.00      -2.10    
      -2.20      -2.30      -2.40      -2.50      -2.60      -2.70      -2.80      -2.90      -3.00      -3.10      -3.20    
      -3.30      -3.40      -3.50      -3.60      -3.70      -3.80      -3.90      -4.00      -4.10      -4.20      -4.30    
      -4.40      -4.50    
 19   1.080E-03 -9.887E-02 -0.199     -0.299     -0.399     -0.499     -0.599     -0.698     -0.798     -0.898     -0.998    
      -1.10      -1.20      -1.30      -1.40      -1.50      -1.60      -1.70      -1.80      -1.90      -2.00      -2.10    
      -2.20      -2.30      -2.40      -2.50      -2.60      -2.70      -2.80      -2.90      -3.00      -3.10      -3.20    
      -3.30      -3.40      -3.50      -3.60      -3.70      -3.80      -3.90      -4.00      -4.10      -4.20      -4.30    
      -4.40      -4.50    
 20   1.063E-03 -9.889E-02 -0.199     -0.299     -0.399     -0.499     -0.599     -0.698     -0.798     -0.898     -0.998    
      -1.10      -1.20      -1.30      -1.40      -1.50      -1.60      -1.70      -1.80      -1.90      -2.00      -2.10    
      -2.20      -2.30      -2.40      -2.50      -2.60      -2.70      -2.80      -2.90      -3.00      -3.10      -3.20    
      -3.30      -3.40      -3.50      -3.60      -3.70      -3.80      -3.90      -4.00      -4.10      -4.20      -4.30    
      -4.40      -4.50    
 21   1.041E-03 -9.891E-02 -0.199     -0.299     -0.399     -0.499     -0.599     -0.699     -0.798     -0.898     -0.998    
      -1.10      -1.20      -1.30      -1.40      -1.50      -1.60      -1.70      -1.80      -1.90      -2.00      -2.10    
      -2.20      -2.30      -2.40      -2.50      -2.60      -2.70      -2.80      -2.90      -3.00      -3.10      -3.20    
      -3.30      -3.40      -3.50      -3.60      -3.70      -3.80      -3.90      -4.00      -4.10      -4.20      -4.30    
      -4.40      -4.50    
 22   1.016E-03 -9.894E-02 -0.199     -0.299     -0.399     -0.499     -0.599     -0.699     -0.799     -0.898     -0.998    
      -1.10      -1.20      -1.30      -1.40      -1.50      -1.60      -1.70      -1.80      -1.90      -2.00      -2.10    
      -2.20      -2.30      -2.40      -2.50      -2.60      -2.70      -2.80      -2.90      -3.00      -3.10      -3.20    
      -3.30      -3.40      -3.50      -3.60      -3.70      -3.80      -3.90      -4.00      -4.10      -4.20      -4.30    
      -4.40      -4.50    
 23   9.886E-04 -9.897E-02 -0.199     -0.299     -0.399     -0.499     -0.599     -0.699     -0.799     -0.899     -0.999    
      -1.10      -1.20      -1.30      -1.40      -1.50      -1.60      -1.70      -1.80      -1.90      -2.00      -2.10    
      -2.20      -2.30      -2.40      -2.50      -2.60      -2.70      -2.80      -2.90      -3.00      -3.10      -3.20    
      -3.30      -3.40      -3.50      -3.60      -3.70      -3.80      -3.90      -4.00      -4.10      -4.20      -4.30    
      -4.40      -4.50    
 24   9.586E-04 -9.901E-02 -0.199     -0.299     -0.399     -0.499     -0.599     -0.699     -0.799     -0.899     -0.999    
      -1.10      -1.20      -1.30      -1.40      -1.50      -1.60      -1.70      -1.80      -1.90      -2.00      -2.10    
      -2.20      -2.30      -2.40      -2.50      -2.60      -2.70      -2.80      -2.90      -3.00      -3.10      -3.20    
      -3.30      -3.40      -3.50      -3.60      -3.70      -3.80      -3.90      -4.00      -4.10      -4.20      -4.30    
      -4.40      -4.50    
 25   9.271E-04 -9.904E-02 -0.199     -0.299     -0.399     -0.499     -0.599     -0.699     -0.799     -0.899     -0.999    
      -1.10      -1.20      -1.30      -1.40      -1.50      -1.60      -1.70      -1.80      -1.90      -2.00      -2.10    
      -2.20      -2.30      -2.40      -2.50      -2.60      -2.70      -2.80      -2.90      -3.00      -3.10      -3.20    
      -3.30      -3.40      -3.50      -3.60      -3.70      -3.80      -3.90      -4.00      -4.10      -4.20      -4.30    
      -4.40      -4.50    
 26   8.944E-04 -9.908E-02 -0.199     -0.299     -0.399     -0.499     -0.599     -0.699     -0.799     -0.899     -0.999    
      -1.10      -1.20      -1.30      -1.40      -1.50      -1.60      -1.70      -1.80      -1.90      -2.00      -2.10    
      -2.20      -2.30      -2.40      -2.50      -2.60      -2.70      -2.80      -2.90      -3.00      -3.10      -3.20    
      -3.30      -3.40      -3.50      -3.60      -3.70      -3.80      -3.90      -4.00      -4.10      -4.20      -4.30    
      -4.40      -4.50    
 27   8.611E-04 -9.912E-02 -0.199     -0.299     -0.399     -0.499     -0.599     -0.699     -0.799     -0.899     -0.999    
      -1.10      -1.20      -1.30      -1.40      -1.50      -1.60      -1.70      -1.80      -1.90      -2.00      -2.10    
      -2.20      -2.30      -2.40      -2.50      -2.60      -2.70      -2.80      -2.90      -3.00      -3.10      -3.20    
      -3.30      -3.40      -3.50      -3.60      -3.70      -3.80      -3.90      -4.00      -4.10      -4.20      -4.30    
      -4.40      -4.50    
 28   8.276E-04 -9.915E-02 -0.199     -0.299     -0.399     -0.499     -0.599     -0.699     -0.799     -0.899     -0.999    
      -1.10      -1.20      -1.30      -1.40      -1.50      -1.60      -1.70      -1.80      -1.90      -2.00      -2.10    
      -2.20      -2.30      -2.40      -2.50      -2.60      -2.70      -2.80      -2.90      -3.00      -3.10      -3.20    
      -3.30      -3.40      -3.50      -3.60      -3.70      -3.80      -3.90      -4.00      -4.10      -4.20      -4.30    
      -4.40      -4.50    
 29   7.943E-04 -9.919E-02 -0.199     -0.299     -0.399     -0.499     -0.599     -0.699     -0.799     -0.899     -0.999    
      -1.10      -1.20      -1.30      -1.40      -1.50      -1.60      -1.70      -1.80      -1.90      -2.00      -2.10    
      -2.20      -2.30      -2.40      -2.50      -2.60      -2.70      -2.80      -2.90      -3.00      -3.10      -3.20    
      -3.30      -3.40      -3.50      -3.60      -3.70      -3.80      -3.90      -4.00      -4.10      -4.20      -4.30    
      -4.40      -4.50    
 30   7.614E-04 -9.923E-02 -0.199     -0.299     -0.399     -0.499     -0.599     -0.699     -0.799     -0.899     -0.999    
      -1.10      -1.20      -1.30      -1.40      -1.50      -1.60      -1.70      -1.80      -1.90      -2.00      -2.10    
      -2.20      -2.30      -2.40      -2.50      -2.60      -2.70      -2.80      -2.90      -3.00      -3.10      -3.20    
      -3.30      -3.40      -3.50      -3.60      -3.70      -3.80      -3.90      -4.00      -4.10      -4.20      -4.30    
      -4.40      -4.50    
 31   7.292E-04 -9.926E-02 -0.199     -0.299     -0.399     -0.499     -0.599     -0.699     -0.799     -0.899     -0.999    
      -1.10      -1.20      -1.30      -1.40      -1.50      -1.60      -1.70      -1.80      -1.90      -2.00      -2.10    
      -2.20      -2.30      -2.40      -2.50      -2.60      -2.70      -2.80      -2.90      -3.00      -3.10      -3.20    
      -3.30      -3.40      -3.50      -3.60      -3.70      -3.80      -3.90      -4.00      -4.10      -4.20      -4.30    
      -4.40      -4.50    

OUTPUT CONTROL IS SPECIFIED EVERY TIME STEP
HEAD PRINT FORMAT CODE IS   4    DRAWDOWN PRINT FORMAT CODE IS   4
HEADS WILL BE SAVED ON UNIT    0    DRAWDOWNS WILL BE SAVED ON UNIT    0

COLUMN TO ROW ANISOTROPY =   1.00000    

    TRANSMIS. ALONG ROWS =   100.000     FOR LAYER   1


    0 Well parameters
                           STRESS PERIOD NO.    1, LENGTH =   100.0000    
                           -----------------------------------------------

                             NUMBER OF TIME STEPS =     1

                              MULTIPLIER FOR DELT =     1.000

                           INITIAL TIME STEP SIZE =   100.0000    

WELL NO.  LAYER   ROW   COL   STRESS RATE         
--------------------------------------------------
     1      1     16     16       1.000    
     2      1     16     21      -1.000    
     3      1      5     16      0.5000    
     4      1     27     16      0.5000    

     4 WELLS

SOLVING FOR HEAD 

   11 ITERATIONS FOR TIME STEP   1 IN STRESS PERIOD    1

MAXIMUM HEAD CHANGE FOR EACH ITERATION:

   HEAD CHANGE   HEAD CHANGE   HEAD CHANGE   HEAD CHANGE   HEAD CHANGE
 LAYER,ROW,COL LAYER,ROW,COL LAYER,ROW,COL LAYER,ROW,COL LAYER,ROW,COL
----------------------------------------------------------------------
    0.4679E-02    0.1242E-02    0.1108E-02    0.1446E-02    0.1628E-02
 (  1, 16, 31) (  1, 15, 32) (  1, 16, 32) (  1, 22, 28) (  1, 15, 20)
    0.1261E-03    0.2616E-03    0.2797E-03    0.5263E-03    0.4059E-03
 (  1, 11, 26) (  1, 11, 26) (  1,  9, 25) (  1,  7, 26) (  1, 10, 16)
    0.2218E-04
 (  1, 15, 20)


HEAD/DRAWDOWN PRINTOUT FLAG = 1     TOTAL BUDGET PRINTOUT FLAG = 0
CELL-BY-CELL FLOW TERM FLAG = 1

OUTPUT FLAGS FOR ALL LAYERS ARE THE SAME:
  HEAD    DRAWDOWN  HEAD  DRAWDOWN
PRINTOUT  PRINTOUT  SAVE    SAVE
----------------------------------
    1         0       1       0


***Link-MT3DMS Package***
OPENING LINK-MT3DMS OUTPUT FILE: G:\MT3DMS.FTL                                                                                                                                                                                           
ON UNIT NUMBER:   333
FILE TYPE: UNFORMATTED
HEADER OPTION: STANDARD
***Link-MT3DMS Package***


SAVING SATURATED THICKNESS AND FLOW TERMS ON UNIT  333 FOR MT3DMS
BY THE LINK-MT3DMS PACKAGE V6.3 AT TIME STEP    1, STRESS PERIOD    1

             HEAD IN LAYER   1 AT END OF TIME STEP   1 IN STRESS PERIOD    1
 ---------------------------------------------------------------------------

          1       2       3       4       5       6       7       8       9      10      11      12      13      14      15
         16      17      18      19      20      21      22      23      24      25      26      27      28      29      30
         31      32      33      34      35      36      37      38      39      40      41      42      43      44      45
         46
...........................................................................................................................
  1     0.00   -0.10   -0.20   -0.30   -0.40   -0.50   -0.60   -0.70   -0.80   -0.90   -1.00   -1.10   -1.20   -1.30   -1.40
       -1.50   -1.60   -1.70   -1.80   -1.90   -2.00   -2.10   -2.20   -2.30   -2.40   -2.50   -2.60   -2.70   -2.80   -2.90
       -3.00   -3.10   -3.20   -3.30   -3.40   -3.50   -3.60   -3.70   -3.80   -3.90   -4.00   -4.10   -4.20   -4.30   -4.40
       -4.50
  2     0.00   -0.10   -0.20   -0.30   -0.40   -0.50   -0.60   -0.70   -0.80   -0.90   -1.00   -1.10   -1.20   -1.30   -1.40
       -1.50   -1.60   -1.70   -1.80   -1.90   -2.00   -2.10   -2.20   -2.30   -2.40   -2.50   -2.60   -2.70   -2.80   -2.90
       -3.00   -3.10   -3.20   -3.30   -3.40   -3.50   -3.60   -3.70   -3.80   -3.90   -4.00   -4.10   -4.20   -4.30   -4.40
       -4.50
  3     0.00   -0.10   -0.20   -0.30   -0.40   -0.50   -0.60   -0.70   -0.80   -0.90   -1.00   -1.10   -1.20   -1.30   -1.40
       -1.50   -1.60   -1.70   -1.80   -1.90   -2.00   -2.10   -2.20   -2.30   -2.40   -2.50   -2.60   -2.70   -2.80   -2.90
       -3.00   -3.10   -3.20   -3.30   -3.40   -3.50   -3.60   -3.70   -3.80   -3.90   -4.00   -4.10   -4.20   -4.30   -4.40
       -4.50
  4     0.00   -0.10   -0.20   -0.30   -0.40   -0.50   -0.60   -0.70   -0.80   -0.90   -1.00   -1.10   -1.20   -1.30   -1.40
       -1.50   -1.60   -1.70   -1.80   -1.90   -2.00   -2.10   -2.20   -2.30   -2.40   -2.50   -2.60   -2.70   -2.80   -2.90
       -3.00   -3.10   -3.20   -3.30   -3.40   -3.50   -3.60   -3.70   -3.80   -3.90   -4.00   -4.10   -4.20   -4.30   -4.40
       -4.50
  5     0.00   -0.10   -0.20   -0.30   -0.40   -0.50   -0.60   -0.70   -0.80   -0.90   -1.00   -1.10   -1.20   -1.30   -1.40
       -1.49   -1.60   -1.70   -1.80   -1.90   -2.00   -2.10   -2.20   -2.30   -2.40   -2.50   -2.60   -2.70   -2.80   -2.90
       -3.00   -3.10   -3.20   -3.30   -3.40   -3.50   -3.60   -3.70   -3.80   -3.90   -4.00   -4.10   -4.20   -4.30   -4.40
       -4.50
  6     0.00   -0.10   -0.20   -0.30   -0.40   -0.50   -0.60   -0.70   -0.80   -0.90   -1.00   -1.10   -1.20   -1.30   -1.40
       -1.50   -1.60   -1.70   -1.80   -1.90   -2.00   -2.10   -2.20   -2.30   -2.40   -2.50   -2.60   -2.70   -2.80   -2.90
       -3.00   -3.10   -3.20   -3.30   -3.40   -3.50   -3.60   -3.70   -3.80   -3.90   -4.00   -4.10   -4.20   -4.30   -4.40
       -4.50
  7     0.00   -0.10   -0.20   -0.30   -0.40   -0.50   -0.60   -0.70   -0.80   -0.90   -1.00   -1.10   -1.20   -1.30   -1.40
       -1.50   -1.60   -1.70   -1.80   -1.90   -2.00   -2.10   -2.20   -2.30   -2.40   -2.50   -2.60   -2.70   -2.80   -2.90
       -3.00   -3.10   -3.20   -3.30   -3.40   -3.50   -3.60   -3.70   -3.80   -3.90   -4.00   -4.10   -4.20   -4.30   -4.40
       -4.50
  8     0.00   -0.10   -0.20   -0.30   -0.40   -0.50   -0.60   -0.70   -0.80   -0.90   -1.00   -1.10   -1.20   -1.30   -1.40
       -1.50   -1.60   -1.70   -1.80   -1.90   -2.00   -2.10   -2.20   -2.30   -2.40   -2.50   -2.60   -2.70   -2.80   -2.90
       -3.00   -3.10   -3.20   -3.30   -3.40   -3.50   -3.60   -3.70   -3.80   -3.90   -4.00   -4.10   -4.20   -4.30   -4.40
       -4.50
  9     0.00   -0.10   -0.20   -0.30   -0.40   -0.50   -0.60   -0.70   -0.80   -0.90   -1.00   -1.10   -1.20   -1.30   -1.40
       -1.50   -1.60   -1.70   -1.80   -1.90   -2.00   -2.10   -2.20   -2.30   -2.40   -2.50   -2.60   -2.70   -2.80   -2.90
       -3.00   -3.10   -3.20   -3.30   -3.40   -3.50   -3.60   -3.70   -3.80   -3.90   -4.00   -4.10   -4.20   -4.30   -4.40
       -4.50
 10     0.00   -0.10   -0.20   -0.30   -0.40   -0.50   -0.60   -0.70   -0.80   -0.90   -1.00   -1.10   -1.20   -1.30   -1.40
       -1.50   -1.60   -1.70   -1.80   -1.90   -2.00   -2.10   -2.20   -2.30   -2.40   -2.50   -2.60   -2.70   -2.80   -2.90
       -3.00   -3.10   -3.20   -3.30   -3.40   -3.50   -3.60   -3.70   -3.80   -3.90   -4.00   -4.10   -4.20   -4.30   -4.40
       -4.50
 11     0.00   -0.10   -0.20   -0.30   -0.40   -0.50   -0.60   -0.70   -0.80   -0.90   -1.00   -1.10   -1.20   -1.30   -1.40
       -1.50   -1.60   -1.70   -1.80   -1.90   -2.00   -2.10   -2.20   -2.30   -2.40   -2.50   -2.60   -2.70   -2.80   -2.90
       -3.00   -3.10   -3.20   -3.30   -3.40   -3.50   -3.60   -3.70   -3.80   -3.90   -4.00   -4.10   -4.20   -4.30   -4.40
       -4.50
 12     0.00   -0.10   -0.20   -0.30   -0.40   -0.50   -0.60   -0.70   -0.80   -0.90   -1.00   -1.10   -1.20   -1.30   -1.40
       -1.50   -1.60   -1.70   -1.80   -1.90   -2.00   -2.10   -2.20   -2.30   -2.40   -2.50   -2.60   -2.70   -2.80   -2.90
       -3.00   -3.10   -3.20   -3.30   -3.40   -3.50   -3.60   -3.70   -3.80   -3.90   -4.00   -4.10   -4.20   -4.30   -4.40
       -4.50
 13     0.00   -0.10   -0.20   -0.30   -0.40   -0.50   -0.60   -0.70   -0.80   -0.90   -1.00   -1.10   -1.20   -1.30   -1.40
       -1.50   -1.60   -1.70   -1.80   -1.90   -2.00   -2.10   -2.20   -2.30   -2.40   -2.50   -2.60   -2.70   -2.80   -2.90
       -3.00   -3.10   -3.20   -3.30   -3.40   -3.50   -3.60   -3.70   -3.80   -3.90   -4.00   -4.10   -4.20   -4.30   -4.40
       -4.50
 14     0.00   -0.10   -0.20   -0.30   -0.40   -0.50   -0.60   -0.70   -0.80   -0.90   -1.00   -1.10   -1.20   -1.30   -1.40
       -1.50   -1.60   -1.70   -1.80   -1.90   -2.00   -2.10   -2.20   -2.30   -2.40   -2.50   -2.60   -2.70   -2.80   -2.90
       -3.00   -3.10   -3.20   -3.30   -3.40   -3.50   -3.60   -3.70   -3.80   -3.90   -4.00   -4.10   -4.20   -4.30   -4.40
       -4.50
 15     0.00   -0.10   -0.20   -0.30   -0.40   -0.50   -0.60   -0.70   -0.80   -0.90   -1.00   -1.10   -1.20   -1.30   -1.40
       -1.50   -1.60   -1.70   -1.80   -1.90   -2.00   -2.10   -2.20   -2.30   -2.40   -2.50   -2.60   -2.70   -2.80   -2.90
       -3.00   -3.10   -3.20   -3.30   -3.40   -3.50   -3.60   -3.70   -3.80   -3.90   -4.00   -4.10   -4.20   -4.30   -4.40
       -4.50
 16     0.00   -0.10   -0.20   -0.30   -0.40   -0.50   -0.60   -0.70   -0.80   -0.90   -1.00   -1.10   -1.20   -1.30   -1.39
       -1.49   -1.60   -1.70   -1.80   -1.90   -2.00   -2.10   -2.20   -2.30   -2.40   -2.50   -2.60   -2.70   -2.80   -2.90
       -3.00   -3.10   -3.20   -3.30   -3.40   -3.50   -3.60   -3.70   -3.80   -3.90   -4.00   -4.10   -4.20   -4.30   -4.40
       -4.50
 17     0.00   -0.10   -0.20   -0.30   -0.40   -0.50   -0.60   -0.70   -0.80   -0.90   -1.00   -1.10   -1.20   -1.30   -1.40
       -1.50   -1.60   -1.70   -1.80   -1.90   -2.00   -2.10   -2.20   -2.30   -2.40   -2.50   -2.60   -2.70   -2.80   -2.90
       -3.00   -3.10   -3.20   -3.30   -3.40   -3.50   -3.60   -3.70   -3.80   -3.90   -4.00   -4.10   -4.20   -4.30   -4.40
       -4.50
 18     0.00   -0.10   -0.20   -0.30   -0.40   -0.50   -0.60   -0.70   -0.80   -0.90   -1.00   -1.10   -1.20   -1.30   -1.40
       -1.50   -1.60   -1.70   -1.80   -1.90   -2.00   -2.10   -2.20   -2.30   -2.40   -2.50   -2.60   -2.70   -2.80   -2.90
       -3.00   -3.10   -3.20   -3.30   -3.40   -3.50   -3.60   -3.70   -3.80   -3.90   -4.00   -4.10   -4.20   -4.30   -4.40
       -4.50
 19     0.00   -0.10   -0.20   -0.30   -0.40   -0.50   -0.60   -0.70   -0.80   -0.90   -1.00   -1.10   -1.20   -1.30   -1.40
       -1.50   -1.60   -1.70   -1.80   -1.90   -2.00   -2.10   -2.20   -2.30   -2.40   -2.50   -2.60   -2.70   -2.80   -2.90
       -3.00   -3.10   -3.20   -3.30   -3.40   -3.50   -3.60   -3.70   -3.80   -3.90   -4.00   -4.10   -4.20   -4.30   -4.40
       -4.50
 20     0.00   -0.10   -0.20   -0.30   -0.40   -0.50   -0.60   -0.70   -0.80   -0.90   -1.00   -1.10   -1.20   -1.30   -1.40
       -1.50   -1.60   -1.70   -1.80   -1.90   -2.00   -2.10   -2.20   -2.30   -2.40   -2.50   -2.60   -2.70   -2.80   -2.90
       -3.00   -3.10   -3.20   -3.30   -3.40   -3.50   -3.60   -3.70   -3.80   -3.90   -4.00   -4.10   -4.20   -4.30   -4.40
       -4.50
 21     0.00   -0.10   -0.20   -0.30   -0.40   -0.50   -0.60   -0.70   -0.80   -0.90   -1.00   -1.10   -1.20   -1.30   -1.40
       -1.50   -1.60   -1.70   -1.80   -1.90   -2.00   -2.10   -2.20   -2.30   -2.40   -2.50   -2.60   -2.70   -2.80   -2.90
       -3.00   -3.10   -3.20   -3.30   -3.40   -3.50   -3.60   -3.70   -3.80   -3.90   -4.00   -4.10   -4.20   -4.30   -4.40
       -4.50
 22     0.00   -0.10   -0.20   -0.30   -0.40   -0.50   -0.60   -0.70   -0.80   -0.90   -1.00   -1.10   -1.20   -1.30   -1.40
       -1.50   -1.60   -1.70   -1.80   -1.90   -2.00   -2.10   -2.20   -2.30   -2.40   -2.50   -2.60   -2.70   -2.80   -2.90
       -3.00   -3.10   -3.20   -3.30   -3.40   -3.50   -3.60   -3.70   -3.80   -3.90   -4.00   -4.10   -4.20   -4.30   -4.40
       -4.50
 23     0.00   -0.10   -0.20   -0.30   -0.40   -0.50   -0.60   -0.70   -0.80   -0.90   -1.00   -1.10   -1.20   -1.30   -1.40
       -1.50   -1.60   -1.70   -1.80   -1.90   -2.00   -2.10   -2.20   -2.30   -2.40   -2.50   -2.60   -2.70   -2.80   -2.90
       -3.00   -3.10   -3.20   -3.30   -3.40   -3.50   -3.60   -3.70   -3.80   -3.90   -4.00   -4.10   -4.20   -4.30   -4.40
       -4.50
 24     0.00   -0.10   -0.20   -0.30   -0.40   -0.50   -0.60   -0.70   -0.80   -0.90   -1.00   -1.10   -1.20   -1.30   -1.40
       -1.50   -1.60   -1.70   -1.80   -1.90   -2.00   -2.10   -2.20   -2.30   -2.40   -2.50   -2.60   -2.70   -2.80   -2.90
       -3.00   -3.10   -3.20   -3.30   -3.40   -3.50   -3.60   -3.70   -3.80   -3.90   -4.00   -4.10   -4.20   -4.30   -4.40
       -4.50
 25     0.00   -0.10   -0.20   -0.30   -0.40   -0.50   -0.60   -0.70   -0.80   -0.90   -1.00   -1.10   -1.20   -1.30   -1.40
       -1.50   -1.60   -1.70   -1.80   -1.90   -2.00   -2.10   -2.20   -2.30   -2.40   -2.50   -2.60   -2.70   -2.80   -2.90
       -3.00   -3.10   -3.20   -3.30   -3.40   -3.50   -3.60   -3.70   -3.80   -3.90   -4.00   -4.10   -4.20   -4.30   -4.40
       -4.50
 26     0.00   -0.10   -0.20   -0.30   -0.40   -0.50   -0.60   -0.70   -0.80   -0.90   -1.00   -1.10   -1.20   -1.30   -1.40
       -1.50   -1.60   -1.70   -1.80   -1.90   -2.00   -2.10   -2.20   -2.30   -2.40   -2.50   -2.60   -2.70   -2.80   -2.90
       -3.00   -3.10   -3.20   -3.30   -3.40   -3.50   -3.60   -3.70   -3.80   -3.90   -4.00   -4.10   -4.20   -4.30   -4.40
       -4.50
 27     0.00   -0.10   -0.20   -0.30   -0.40   -0.50   -0.60   -0.70   -0.80   -0.90   -1.00   -1.10   -1.20   -1.30   -1.40
       -1.49   -1.60   -1.70   -1.80   -1.90   -2.00   -2.10   -2.20   -2.30   -2.40   -2.50   -2.60   -2.70   -2.80   -2.90
       -3.00   -3.10   -3.20   -3.30   -3.40   -3.50   -3.60   -3.70   -3.80   -3.90   -4.00   -4.10   -4.20   -4.30   -4.40
       -4.50
 28     0.00   -0.10   -0.20   -0.30   -0.40   -0.50   -0.60   -0.70   -0.80   -0.90   -1.00   -1.10   -1.20   -1.30   -1.40
       -1.50   -1.60   -1.70   -1.80   -1.90   -2.00   -2.10   -2.20   -2.30   -2.40   -2.50   -2.60   -2.70   -2.80   -2.90
       -3.00   -3.10   -3.20   -3.30   -3.40   -3.50   -3.60   -3.70   -3.80   -3.90   -4.00   -4.10   -4.20   -4.30   -4.40
       -4.50
 29     0.00   -0.10   -0.20   -0.30   -0.40   -0.50   -0.60   -0.70   -0.80   -0.90   -1.00   -1.10   -1.20   -1.30   -1.40
       -1.50   -1.60   -1.70   -1.80   -1.90   -2.00   -2.10   -2.20   -2.30   -2.40   -2.50   -2.60   -2.70   -2.80   -2.90
       -3.00   -3.10   -3.20   -3.30   -3.40   -3.50   -3.60   -3.70   -3.80   -3.90   -4.00   -4.10   -4.20   -4.30   -4.40
       -4.50
 30     0.00   -0.10   -0.20   -0.30   -0.40   -0.50   -0.60   -0.70   -0.80   -0.90   -1.00   -1.10   -1.20   -1.30   -1.40
       -1.50   -1.60   -1.70   -1.80   -1.90   -2.00   -2.10   -2.20   -2.30   -2.40   -2.50   -2.60   -2.70   -2.80   -2.90
       -3.00   -3.10   -3.20   -3.30   -3.40   -3.50   -3.60   -3.70   -3.80   -3.90   -4.00   -4.10   -4.20   -4.30   -4.40
       -4.50
 31     0.00   -0.10   -0.20   -0.30   -0.40   -0.50   -0.60   -0.70   -0.80   -0.90   -1.00   -1.10   -1.20   -1.30   -1.40
       -1.50   -1.60   -1.70   -1.80   -1.90   -2.00   -2.10   -2.20   -2.30   -2.40   -2.50   -2.60   -2.70   -2.80   -2.90
       -3.00   -3.10   -3.20   -3.30   -3.40   -3.50   -3.60   -3.70   -3.80   -3.90   -4.00   -4.10   -4.20   -4.30   -4.40
       -4.50
 VOLUMETRIC BUDGET FOR ENTIRE MODEL AT END OF TIME STEP  1 IN STRESS PERIOD   1
 ------------------------------------------------------------------------------

    CUMULATIVE VOLUMES      L**3       RATES FOR THIS TIME STEP      L**3/T
    ------------------                 ------------------------

          IN:                                      IN:
          ---                                      ---
            STORAGE =           0.0000               STORAGE =           0.0000
      CONSTANT HEAD =       30936.1055         CONSTANT HEAD =         309.3611
              WELLS =         200.0000                 WELLS =           2.0000

           TOTAL IN =       31136.1055              TOTAL IN =         311.3611

         OUT:                                     OUT:
         ----                                     ----
            STORAGE =           0.0000               STORAGE =           0.0000
      CONSTANT HEAD =       31031.9629         CONSTANT HEAD =         310.3196
              WELLS =         100.0000                 WELLS =           1.0000

          TOTAL OUT =       31131.9629             TOTAL OUT =         311.3196

           IN - OUT =           4.1426              IN - OUT =       4.1412E-02

PERCENT DISCREPANCY =           0.01     PERCENT DISCREPANCY =           0.01






         TIME SUMMARY AT END OF TIME STEP   1 IN STRESS PERIOD    1
                   SECONDS     MINUTES      HOURS       DAYS        YEARS
                   -----------------------------------------------------------
  TIME STEP LENGTH 8.64000E+06 1.44000E+05  2400.0      100.00     0.27379    
STRESS PERIOD TIME 8.64000E+06 1.44000E+05  2400.0      100.00     0.27379    
        TOTAL TIME 8.64000E+06 1.44000E+05  2400.0      100.00     0.27379    
