                                 MODFLOW-2000
     U.S. GEOLOGICAL SURVEY MODULAR FINITE-DIFFERENCE GROUND-WATER FLOW MODEL
                          VERSION 1.18.01 06/20/2008


This model run combines GLOBAL and LIST output into this single file.

GLOBAL LISTING FILE: P7.LST
                        UNIT    6
 Global input files                                                                                                                                                                                    

OPENING P7.DIS
FILE TYPE:DIS   UNIT   10   STATUS:OLD    
FORMAT:FORMATTED              ACCESS:SEQUENTIAL          
Link-MT3DMS input file                                                                                                                                                                                 

OPENING P7.LMT
FILE TYPE:LMT6   UNIT   66   STATUS:OLD    
FORMAT:FORMATTED              ACCESS:SEQUENTIAL          
 Flow process input files                                                                                                                                                                              

OPENING P7.BA6
FILE TYPE:BAS6   UNIT    1   STATUS:OLD    
FORMAT:FORMATTED              ACCESS:SEQUENTIAL          

OPENING P7.BC6
FILE TYPE:BCF6   UNIT   11   STATUS:OLD    
FORMAT:FORMATTED              ACCESS:SEQUENTIAL          

OPENING P7.WEL
FILE TYPE:WEL   UNIT   12   STATUS:OLD    
FORMAT:FORMATTED              ACCESS:SEQUENTIAL          

OPENING P7.SIP
FILE TYPE:SIP   UNIT   19   STATUS:OLD    
FORMAT:FORMATTED              ACCESS:SEQUENTIAL          

OPENING P7.OC
FILE TYPE:OC   UNIT   22   STATUS:OLD    
FORMAT:FORMATTED              ACCESS:SEQUENTIAL          


DISCRETIZATION INPUT DATA READ FROM UNIT   10
   8 LAYERS        15 ROWS        21 COLUMNS
   1 STRESS PERIOD(S) IN SIMULATION
MODEL TIME UNIT IS DAYS
MODEL LENGTH UNIT IS UNDEFINED
THE GROUND-WATER TRANSPORT PROCESS IS INACTIVE

THE OBSERVATION PROCESS IS INACTIVE
THE SENSITIVITY PROCESS IS INACTIVE
THE PARAMETER-ESTIMATION PROCESS IS INACTIVE

MODE: FORWARD

 Confining bed flag for each layer:
  0   0   0   0   0   0   0   0

     22716  ELEMENTS OF GX ARRAY USED OUT OF      22716
      2520  ELEMENTS OF GZ ARRAY USED OUT OF       2520
      2520  ELEMENTS OF IG ARRAY USED OUT OF       2520

                    DELR =   10.0000    

                    DELC =   10.0000    

TOP ELEVATION OF LAYER 1 =   80.0000    

  MODEL LAYER BOTTOM EL. =   70.0000     FOR LAYER   1

  MODEL LAYER BOTTOM EL. =   60.0000     FOR LAYER   2

  MODEL LAYER BOTTOM EL. =   50.0000     FOR LAYER   3

  MODEL LAYER BOTTOM EL. =   40.0000     FOR LAYER   4

  MODEL LAYER BOTTOM EL. =   30.0000     FOR LAYER   5

  MODEL LAYER BOTTOM EL. =   20.0000     FOR LAYER   6

  MODEL LAYER BOTTOM EL. =   10.0000     FOR LAYER   7

  MODEL LAYER BOTTOM EL. =   0.00000     FOR LAYER   8


STRESS PERIOD     LENGTH       TIME STEPS     MULTIPLIER FOR DELT    SS FLAG
----------------------------------------------------------------------------
       1         25.00000          1                    1.000         SS

STEADY-STATE SIMULATION




SIP5 -- STRONGLY IMPLICIT PROCEDURE SOLUTION PACKAGE
                   VERSION 5, 9/1/93 INPUT READ FROM UNIT   19
MAXIMUM OF  50 ITERATIONS ALLOWED FOR CLOSURE
 5 ITERATION PARAMETERS
     10135 ELEMENTS IN X ARRAY ARE USED BY SIP
       150 ELEMENTS IN IX ARRAY ARE USED BY SIP

     10135  ELEMENTS OF X ARRAY USED OUT OF      10135
         0  ELEMENTS OF Z ARRAY USED OUT OF          1
       150  ELEMENTS OF IX ARRAY USED OUT OF        150
         0  ELEMENTS OF XHS ARRAY USED OUT OF          1



         SOLUTION BY THE STRONGLY IMPLICIT PROCEDURE
         -------------------------------------------
MAXIMUM ITERATIONS ALLOWED FOR CLOSURE =       50
                ACCELERATION PARAMETER =     1.0000    
     HEAD CHANGE CRITERION FOR CLOSURE =    0.10000E-08
     SIP HEAD CHANGE PRINTOUT INTERVAL =        1

    5 ITERATION PARAMETERS CALCULATED FROM SPECIFIED WSEED = 0.00100000 :

 0.000000E+00 0.822172E+00 0.968377E+00 0.994377E+00 0.999000E+00

#3D TEST PROBLEM                                                                
#UNIFORM FLOW FIELD                                                             
   8 LAYERS        15 ROWS        21 COLUMNS
   1 STRESS PERIOD(S) IN SIMULATION

BAS6 -- BASIC PACKAGE, VERSION 6, 1/11/2000 INPUT READ FROM UNIT    1
        40 ELEMENTS IN IR ARRAY ARE USED BY BAS

BCF6 -- BLOCK-CENTERED FLOW PACKAGE, VERSION 6, 1/11/2000
        INPUT READ FROM UNIT 11
STEADY-STATE SIMULATION
HEAD AT CELLS THAT CONVERT TO DRY=   0.0000    
WETTING CAPABILITY IS NOT ACTIVE
     LAYER  LAYER-TYPE CODE     INTERBLOCK T
     --------------------------------------------
        1            0          0 -- HARMONIC    
        2            0          0 -- HARMONIC    
        3            0          0 -- HARMONIC    
        4            0          0 -- HARMONIC    
        5            0          0 -- HARMONIC    
        6            0          0 -- HARMONIC    
        7            0          0 -- HARMONIC    
        8            0          0 -- HARMONIC    
      2528 ELEMENTS IN RX ARRAY ARE USED BY BCF

WEL6 -- WELL PACKAGE, VERSION 6, 1/11/2000 INPUT READ FROM UNIT   12
No named parameters
MAXIMUM OF      1 ACTIVE WELLS AT ONE TIME
         4 ELEMENTS IN RX ARRAY ARE USED BY WEL

      2532  ELEMENTS OF RX ARRAY USED OUT OF       2532
         0  ELEMENTS OF RZ ARRAY USED OUT OF          1
        40  ELEMENTS OF IR ARRAY USED OUT OF         40
#3D TEST PROBLEM                                                                
#UNIFORM FLOW FIELD                                                             



                    BOUNDARY ARRAY FOR LAYER   1
READING ON UNIT    1 WITH FORMAT: (20I4)              

       1   2   3   4   5   6   7   8   9  10  11  12  13  14  15  16  17  18  19  20  21
........................................................................................
  1   -1   1   1   1   1   1   1   1   1   1   1   1   1   1   1   1   1   1   1   1  -1
  2   -1   1   1   1   1   1   1   1   1   1   1   1   1   1   1   1   1   1   1   1  -1
  3   -1   1   1   1   1   1   1   1   1   1   1   1   1   1   1   1   1   1   1   1  -1
  4   -1   1   1   1   1   1   1   1   1   1   1   1   1   1   1   1   1   1   1   1  -1
  5   -1   1   1   1   1   1   1   1   1   1   1   1   1   1   1   1   1   1   1   1  -1
  6   -1   1   1   1   1   1   1   1   1   1   1   1   1   1   1   1   1   1   1   1  -1
  7   -1   1   1   1   1   1   1   1   1   1   1   1   1   1   1   1   1   1   1   1  -1
  8   -1   1   1   1   1   1   1   1   1   1   1   1   1   1   1   1   1   1   1   1  -1
  9   -1   1   1   1   1   1   1   1   1   1   1   1   1   1   1   1   1   1   1   1  -1
 10   -1   1   1   1   1   1   1   1   1   1   1   1   1   1   1   1   1   1   1   1  -1
 11   -1   1   1   1   1   1   1   1   1   1   1   1   1   1   1   1   1   1   1   1  -1
 12   -1   1   1   1   1   1   1   1   1   1   1   1   1   1   1   1   1   1   1   1  -1
 13   -1   1   1   1   1   1   1   1   1   1   1   1   1   1   1   1   1   1   1   1  -1
 14   -1   1   1   1   1   1   1   1   1   1   1   1   1   1   1   1   1   1   1   1  -1
 15   -1   1   1   1   1   1   1   1   1   1   1   1   1   1   1   1   1   1   1   1  -1



                    BOUNDARY ARRAY FOR LAYER   2
READING ON UNIT    1 WITH FORMAT: (20I4)              

       1   2   3   4   5   6   7   8   9  10  11  12  13  14  15  16  17  18  19  20  21
........................................................................................
  1   -1   1   1   1   1   1   1   1   1   1   1   1   1   1   1   1   1   1   1   1  -1
  2   -1   1   1   1   1   1   1   1   1   1   1   1   1   1   1   1   1   1   1   1  -1
  3   -1   1   1   1   1   1   1   1   1   1   1   1   1   1   1   1   1   1   1   1  -1
  4   -1   1   1   1   1   1   1   1   1   1   1   1   1   1   1   1   1   1   1   1  -1
  5   -1   1   1   1   1   1   1   1   1   1   1   1   1   1   1   1   1   1   1   1  -1
  6   -1   1   1   1   1   1   1   1   1   1   1   1   1   1   1   1   1   1   1   1  -1
  7   -1   1   1   1   1   1   1   1   1   1   1   1   1   1   1   1   1   1   1   1  -1
  8   -1   1   1   1   1   1   1   1   1   1   1   1   1   1   1   1   1   1   1   1  -1
  9   -1   1   1   1   1   1   1   1   1   1   1   1   1   1   1   1   1   1   1   1  -1
 10   -1   1   1   1   1   1   1   1   1   1   1   1   1   1   1   1   1   1   1   1  -1
 11   -1   1   1   1   1   1   1   1   1   1   1   1   1   1   1   1   1   1   1   1  -1
 12   -1   1   1   1   1   1   1   1   1   1   1   1   1   1   1   1   1   1   1   1  -1
 13   -1   1   1   1   1   1   1   1   1   1   1   1   1   1   1   1   1   1   1   1  -1
 14   -1   1   1   1   1   1   1   1   1   1   1   1   1   1   1   1   1   1   1   1  -1
 15   -1   1   1   1   1   1   1   1   1   1   1   1   1   1   1   1   1   1   1   1  -1



                    BOUNDARY ARRAY FOR LAYER   3
READING ON UNIT    1 WITH FORMAT: (20I4)              

       1   2   3   4   5   6   7   8   9  10  11  12  13  14  15  16  17  18  19  20  21
........................................................................................
  1   -1   1   1   1   1   1   1   1   1   1   1   1   1   1   1   1   1   1   1   1  -1
  2   -1   1   1   1   1   1   1   1   1   1   1   1   1   1   1   1   1   1   1   1  -1
  3   -1   1   1   1   1   1   1   1   1   1   1   1   1   1   1   1   1   1   1   1  -1
  4   -1   1   1   1   1   1   1   1   1   1   1   1   1   1   1   1   1   1   1   1  -1
  5   -1   1   1   1   1   1   1   1   1   1   1   1   1   1   1   1   1   1   1   1  -1
  6   -1   1   1   1   1   1   1   1   1   1   1   1   1   1   1   1   1   1   1   1  -1
  7   -1   1   1   1   1   1   1   1   1   1   1   1   1   1   1   1   1   1   1   1  -1
  8   -1   1   1   1   1   1   1   1   1   1   1   1   1   1   1   1   1   1   1   1  -1
  9   -1   1   1   1   1   1   1   1   1   1   1   1   1   1   1   1   1   1   1   1  -1
 10   -1   1   1   1   1   1   1   1   1   1   1   1   1   1   1   1   1   1   1   1  -1
 11   -1   1   1   1   1   1   1   1   1   1   1   1   1   1   1   1   1   1   1   1  -1
 12   -1   1   1   1   1   1   1   1   1   1   1   1   1   1   1   1   1   1   1   1  -1
 13   -1   1   1   1   1   1   1   1   1   1   1   1   1   1   1   1   1   1   1   1  -1
 14   -1   1   1   1   1   1   1   1   1   1   1   1   1   1   1   1   1   1   1   1  -1
 15   -1   1   1   1   1   1   1   1   1   1   1   1   1   1   1   1   1   1   1   1  -1



                    BOUNDARY ARRAY FOR LAYER   4
READING ON UNIT    1 WITH FORMAT: (20I4)              

       1   2   3   4   5   6   7   8   9  10  11  12  13  14  15  16  17  18  19  20  21
........................................................................................
  1   -1   1   1   1   1   1   1   1   1   1   1   1   1   1   1   1   1   1   1   1  -1
  2   -1   1   1   1   1   1   1   1   1   1   1   1   1   1   1   1   1   1   1   1  -1
  3   -1   1   1   1   1   1   1   1   1   1   1   1   1   1   1   1   1   1   1   1  -1
  4   -1   1   1   1   1   1   1   1   1   1   1   1   1   1   1   1   1   1   1   1  -1
  5   -1   1   1   1   1   1   1   1   1   1   1   1   1   1   1   1   1   1   1   1  -1
  6   -1   1   1   1   1   1   1   1   1   1   1   1   1   1   1   1   1   1   1   1  -1
  7   -1   1   1   1   1   1   1   1   1   1   1   1   1   1   1   1   1   1   1   1  -1
  8   -1   1   1   1   1   1   1   1   1   1   1   1   1   1   1   1   1   1   1   1  -1
  9   -1   1   1   1   1   1   1   1   1   1   1   1   1   1   1   1   1   1   1   1  -1
 10   -1   1   1   1   1   1   1   1   1   1   1   1   1   1   1   1   1   1   1   1  -1
 11   -1   1   1   1   1   1   1   1   1   1   1   1   1   1   1   1   1   1   1   1  -1
 12   -1   1   1   1   1   1   1   1   1   1   1   1   1   1   1   1   1   1   1   1  -1
 13   -1   1   1   1   1   1   1   1   1   1   1   1   1   1   1   1   1   1   1   1  -1
 14   -1   1   1   1   1   1   1   1   1   1   1   1   1   1   1   1   1   1   1   1  -1
 15   -1   1   1   1   1   1   1   1   1   1   1   1   1   1   1   1   1   1   1   1  -1



                    BOUNDARY ARRAY FOR LAYER   5
READING ON UNIT    1 WITH FORMAT: (20I4)              

       1   2   3   4   5   6   7   8   9  10  11  12  13  14  15  16  17  18  19  20  21
........................................................................................
  1   -1   1   1   1   1   1   1   1   1   1   1   1   1   1   1   1   1   1   1   1  -1
  2   -1   1   1   1   1   1   1   1   1   1   1   1   1   1   1   1   1   1   1   1  -1
  3   -1   1   1   1   1   1   1   1   1   1   1   1   1   1   1   1   1   1   1   1  -1
  4   -1   1   1   1   1   1   1   1   1   1   1   1   1   1   1   1   1   1   1   1  -1
  5   -1   1   1   1   1   1   1   1   1   1   1   1   1   1   1   1   1   1   1   1  -1
  6   -1   1   1   1   1   1   1   1   1   1   1   1   1   1   1   1   1   1   1   1  -1
  7   -1   1   1   1   1   1   1   1   1   1   1   1   1   1   1   1   1   1   1   1  -1
  8   -1   1   1   1   1   1   1   1   1   1   1   1   1   1   1   1   1   1   1   1  -1
  9   -1   1   1   1   1   1   1   1   1   1   1   1   1   1   1   1   1   1   1   1  -1
 10   -1   1   1   1   1   1   1   1   1   1   1   1   1   1   1   1   1   1   1   1  -1
 11   -1   1   1   1   1   1   1   1   1   1   1   1   1   1   1   1   1   1   1   1  -1
 12   -1   1   1   1   1   1   1   1   1   1   1   1   1   1   1   1   1   1   1   1  -1
 13   -1   1   1   1   1   1   1   1   1   1   1   1   1   1   1   1   1   1   1   1  -1
 14   -1   1   1   1   1   1   1   1   1   1   1   1   1   1   1   1   1   1   1   1  -1
 15   -1   1   1   1   1   1   1   1   1   1   1   1   1   1   1   1   1   1   1   1  -1



                    BOUNDARY ARRAY FOR LAYER   6
READING ON UNIT    1 WITH FORMAT: (20I4)              

       1   2   3   4   5   6   7   8   9  10  11  12  13  14  15  16  17  18  19  20  21
........................................................................................
  1   -1   1   1   1   1   1   1   1   1   1   1   1   1   1   1   1   1   1   1   1  -1
  2   -1   1   1   1   1   1   1   1   1   1   1   1   1   1   1   1   1   1   1   1  -1
  3   -1   1   1   1   1   1   1   1   1   1   1   1   1   1   1   1   1   1   1   1  -1
  4   -1   1   1   1   1   1   1   1   1   1   1   1   1   1   1   1   1   1   1   1  -1
  5   -1   1   1   1   1   1   1   1   1   1   1   1   1   1   1   1   1   1   1   1  -1
  6   -1   1   1   1   1   1   1   1   1   1   1   1   1   1   1   1   1   1   1   1  -1
  7   -1   1   1   1   1   1   1   1   1   1   1   1   1   1   1   1   1   1   1   1  -1
  8   -1   1   1   1   1   1   1   1   1   1   1   1   1   1   1   1   1   1   1   1  -1
  9   -1   1   1   1   1   1   1   1   1   1   1   1   1   1   1   1   1   1   1   1  -1
 10   -1   1   1   1   1   1   1   1   1   1   1   1   1   1   1   1   1   1   1   1  -1
 11   -1   1   1   1   1   1   1   1   1   1   1   1   1   1   1   1   1   1   1   1  -1
 12   -1   1   1   1   1   1   1   1   1   1   1   1   1   1   1   1   1   1   1   1  -1
 13   -1   1   1   1   1   1   1   1   1   1   1   1   1   1   1   1   1   1   1   1  -1
 14   -1   1   1   1   1   1   1   1   1   1   1   1   1   1   1   1   1   1   1   1  -1
 15   -1   1   1   1   1   1   1   1   1   1   1   1   1   1   1   1   1   1   1   1  -1



                    BOUNDARY ARRAY FOR LAYER   7
READING ON UNIT    1 WITH FORMAT: (20I4)              

       1   2   3   4   5   6   7   8   9  10  11  12  13  14  15  16  17  18  19  20  21
........................................................................................
  1   -1   1   1   1   1   1   1   1   1   1   1   1   1   1   1   1   1   1   1   1  -1
  2   -1   1   1   1   1   1   1   1   1   1   1   1   1   1   1   1   1   1   1   1  -1
  3   -1   1   1   1   1   1   1   1   1   1   1   1   1   1   1   1   1   1   1   1  -1
  4   -1   1   1   1   1   1   1   1   1   1   1   1   1   1   1   1   1   1   1   1  -1
  5   -1   1   1   1   1   1   1   1   1   1   1   1   1   1   1   1   1   1   1   1  -1
  6   -1   1   1   1   1   1   1   1   1   1   1   1   1   1   1   1   1   1   1   1  -1
  7   -1   1   1   1   1   1   1   1   1   1   1   1   1   1   1   1   1   1   1   1  -1
  8   -1   1   1   1   1   1   1   1   1   1   1   1   1   1   1   1   1   1   1   1  -1
  9   -1   1   1   1   1   1   1   1   1   1   1   1   1   1   1   1   1   1   1   1  -1
 10   -1   1   1   1   1   1   1   1   1   1   1   1   1   1   1   1   1   1   1   1  -1
 11   -1   1   1   1   1   1   1   1   1   1   1   1   1   1   1   1   1   1   1   1  -1
 12   -1   1   1   1   1   1   1   1   1   1   1   1   1   1   1   1   1   1   1   1  -1
 13   -1   1   1   1   1   1   1   1   1   1   1   1   1   1   1   1   1   1   1   1  -1
 14   -1   1   1   1   1   1   1   1   1   1   1   1   1   1   1   1   1   1   1   1  -1
 15   -1   1   1   1   1   1   1   1   1   1   1   1   1   1   1   1   1   1   1   1  -1



                    BOUNDARY ARRAY FOR LAYER   8
READING ON UNIT    1 WITH FORMAT: (20I4)              

       1   2   3   4   5   6   7   8   9  10  11  12  13  14  15  16  17  18  19  20  21
........................................................................................
  1   -1   1   1   1   1   1   1   1   1   1   1   1   1   1   1   1   1   1   1   1  -1
  2   -1   1   1   1   1   1   1   1   1   1   1   1   1   1   1   1   1   1   1   1  -1
  3   -1   1   1   1   1   1   1   1   1   1   1   1   1   1   1   1   1   1   1   1  -1
  4   -1   1   1   1   1   1   1   1   1   1   1   1   1   1   1   1   1   1   1   1  -1
  5   -1   1   1   1   1   1   1   1   1   1   1   1   1   1   1   1   1   1   1   1  -1
  6   -1   1   1   1   1   1   1   1   1   1   1   1   1   1   1   1   1   1   1   1  -1
  7   -1   1   1   1   1   1   1   1   1   1   1   1   1   1   1   1   1   1   1   1  -1
  8   -1   1   1   1   1   1   1   1   1   1   1   1   1   1   1   1   1   1   1   1  -1
  9   -1   1   1   1   1   1   1   1   1   1   1   1   1   1   1   1   1   1   1   1  -1
 10   -1   1   1   1   1   1   1   1   1   1   1   1   1   1   1   1   1   1   1   1  -1
 11   -1   1   1   1   1   1   1   1   1   1   1   1   1   1   1   1   1   1   1   1  -1
 12   -1   1   1   1   1   1   1   1   1   1   1   1   1   1   1   1   1   1   1   1  -1
 13   -1   1   1   1   1   1   1   1   1   1   1   1   1   1   1   1   1   1   1   1  -1
 14   -1   1   1   1   1   1   1   1   1   1   1   1   1   1   1   1   1   1   1   1  -1
 15   -1   1   1   1   1   1   1   1   1   1   1   1   1   1   1   1   1   1   1   1  -1

AQUIFER HEAD WILL BE SET TO  999.99     AT ALL NO-FLOW NODES (IBOUND=0).



                      INITIAL HEAD FOR LAYER   1
READING ON UNIT    1 WITH FORMAT: (10F13.0)           

          1       2       3       4       5       6       7       8       9      10      11      12      13      14      15
         16      17      18      19      20      21
...........................................................................................................................
  1    80.00   79.00   78.00   77.00   76.00   75.00   74.00   73.00   72.00   71.00   70.00   69.00   68.00   67.00   66.00
       65.00   64.00   63.00   62.00   61.00   60.00
  2    80.00   79.00   78.00   77.00   76.00   75.00   74.00   73.00   72.00   71.00   70.00   69.00   68.00   67.00   66.00
       65.00   64.00   63.00   62.00   61.00   60.00
  3    80.00   79.00   78.00   77.00   76.00   75.00   74.00   73.00   72.00   71.00   70.00   69.00   68.00   67.00   66.00
       65.00   64.00   63.00   62.00   61.00   60.00
  4    80.00   79.00   78.00   77.00   76.00   75.00   74.00   73.00   72.00   71.00   70.00   69.00   68.00   67.00   66.00
       65.00   64.00   63.00   62.00   61.00   60.00
  5    80.00   79.00   78.00   77.00   76.00   75.00   74.00   73.00   72.00   71.00   70.00   69.00   68.00   67.00   66.00
       65.00   64.00   63.00   62.00   61.00   60.00
  6    80.00   79.00   78.00   77.00   76.00   75.00   74.00   73.00   72.00   71.00   70.00   69.00   68.00   67.00   66.00
       65.00   64.00   63.00   62.00   61.00   60.00
  7    80.00   79.00   78.00   77.00   76.00   75.00   74.00   73.00   72.00   71.00   70.00   69.00   68.00   67.00   66.00
       65.00   64.00   63.00   62.00   61.00   60.00
  8    80.00   79.00   78.00   77.00   76.00   75.00   74.00   73.00   72.00   71.00   70.00   69.00   68.00   67.00   66.00
       65.00   64.00   63.00   62.00   61.00   60.00
  9    80.00   79.00   78.00   77.00   76.00   75.00   74.00   73.00   72.00   71.00   70.00   69.00   68.00   67.00   66.00
       65.00   64.00   63.00   62.00   61.00   60.00
 10    80.00   79.00   78.00   77.00   76.00   75.00   74.00   73.00   72.00   71.00   70.00   69.00   68.00   67.00   66.00
       65.00   64.00   63.00   62.00   61.00   60.00
 11    80.00   79.00   78.00   77.00   76.00   75.00   74.00   73.00   72.00   71.00   70.00   69.00   68.00   67.00   66.00
       65.00   64.00   63.00   62.00   61.00   60.00
 12    80.00   79.00   78.00   77.00   76.00   75.00   74.00   73.00   72.00   71.00   70.00   69.00   68.00   67.00   66.00
       65.00   64.00   63.00   62.00   61.00   60.00
 13    80.00   79.00   78.00   77.00   76.00   75.00   74.00   73.00   72.00   71.00   70.00   69.00   68.00   67.00   66.00
       65.00   64.00   63.00   62.00   61.00   60.00
 14    80.00   79.00   78.00   77.00   76.00   75.00   74.00   73.00   72.00   71.00   70.00   69.00   68.00   67.00   66.00
       65.00   64.00   63.00   62.00   61.00   60.00
 15    80.00   79.00   78.00   77.00   76.00   75.00   74.00   73.00   72.00   71.00   70.00   69.00   68.00   67.00   66.00
       65.00   64.00   63.00   62.00   61.00   60.00



                      INITIAL HEAD FOR LAYER   2
READING ON UNIT    1 WITH FORMAT: (10F13.0)           

          1       2       3       4       5       6       7       8       9      10      11      12      13      14      15
         16      17      18      19      20      21
...........................................................................................................................
  1    80.00   79.00   78.00   77.00   76.00   75.00   74.00   73.00   72.00   71.00   70.00   69.00   68.00   67.00   66.00
       65.00   64.00   63.00   62.00   61.00   60.00
  2    80.00   79.00   78.00   77.00   76.00   75.00   74.00   73.00   72.00   71.00   70.00   69.00   68.00   67.00   66.00
       65.00   64.00   63.00   62.00   61.00   60.00
  3    80.00   79.00   78.00   77.00   76.00   75.00   74.00   73.00   72.00   71.00   70.00   69.00   68.00   67.00   66.00
       65.00   64.00   63.00   62.00   61.00   60.00
  4    80.00   79.00   78.00   77.00   76.00   75.00   74.00   73.00   72.00   71.00   70.00   69.00   68.00   67.00   66.00
       65.00   64.00   63.00   62.00   61.00   60.00
  5    80.00   79.00   78.00   77.00   76.00   75.00   74.00   73.00   72.00   71.00   70.00   69.00   68.00   67.00   66.00
       65.00   64.00   63.00   62.00   61.00   60.00
  6    80.00   79.00   78.00   77.00   76.00   75.00   74.00   73.00   72.00   71.00   70.00   69.00   68.00   67.00   66.00
       65.00   64.00   63.00   62.00   61.00   60.00
  7    80.00   79.00   78.00   77.00   76.00   75.00   74.00   73.00   72.00   71.00   70.00   69.00   68.00   67.00   66.00
       65.00   64.00   63.00   62.00   61.00   60.00
  8    80.00   79.00   78.00   77.00   76.00   75.00   74.00   73.00   72.00   71.00   70.00   69.00   68.00   67.00   66.00
       65.00   64.00   63.00   62.00   61.00   60.00
  9    80.00   79.00   78.00   77.00   76.00   75.00   74.00   73.00   72.00   71.00   70.00   69.00   68.00   67.00   66.00
       65.00   64.00   63.00   62.00   61.00   60.00
 10    80.00   79.00   78.00   77.00   76.00   75.00   74.00   73.00   72.00   71.00   70.00   69.00   68.00   67.00   66.00
       65.00   64.00   63.00   62.00   61.00   60.00
 11    80.00   79.00   78.00   77.00   76.00   75.00   74.00   73.00   72.00   71.00   70.00   69.00   68.00   67.00   66.00
       65.00   64.00   63.00   62.00   61.00   60.00
 12    80.00   79.00   78.00   77.00   76.00   75.00   74.00   73.00   72.00   71.00   70.00   69.00   68.00   67.00   66.00
       65.00   64.00   63.00   62.00   61.00   60.00
 13    80.00   79.00   78.00   77.00   76.00   75.00   74.00   73.00   72.00   71.00   70.00   69.00   68.00   67.00   66.00
       65.00   64.00   63.00   62.00   61.00   60.00
 14    80.00   79.00   78.00   77.00   76.00   75.00   74.00   73.00   72.00   71.00   70.00   69.00   68.00   67.00   66.00
       65.00   64.00   63.00   62.00   61.00   60.00
 15    80.00   79.00   78.00   77.00   76.00   75.00   74.00   73.00   72.00   71.00   70.00   69.00   68.00   67.00   66.00
       65.00   64.00   63.00   62.00   61.00   60.00



                      INITIAL HEAD FOR LAYER   3
READING ON UNIT    1 WITH FORMAT: (10F13.0)           

          1       2       3       4       5       6       7       8       9      10      11      12      13      14      15
         16      17      18      19      20      21
...........................................................................................................................
  1    80.00   79.00   78.00   77.00   76.00   75.00   74.00   73.00   72.00   71.00   70.00   69.00   68.00   67.00   66.00
       65.00   64.00   63.00   62.00   61.00   60.00
  2    80.00   79.00   78.00   77.00   76.00   75.00   74.00   73.00   72.00   71.00   70.00   69.00   68.00   67.00   66.00
       65.00   64.00   63.00   62.00   61.00   60.00
  3    80.00   79.00   78.00   77.00   76.00   75.00   74.00   73.00   72.00   71.00   70.00   69.00   68.00   67.00   66.00
       65.00   64.00   63.00   62.00   61.00   60.00
  4    80.00   79.00   78.00   77.00   76.00   75.00   74.00   73.00   72.00   71.00   70.00   69.00   68.00   67.00   66.00
       65.00   64.00   63.00   62.00   61.00   60.00
  5    80.00   79.00   78.00   77.00   76.00   75.00   74.00   73.00   72.00   71.00   70.00   69.00   68.00   67.00   66.00
       65.00   64.00   63.00   62.00   61.00   60.00
  6    80.00   79.00   78.00   77.00   76.00   75.00   74.00   73.00   72.00   71.00   70.00   69.00   68.00   67.00   66.00
       65.00   64.00   63.00   62.00   61.00   60.00
  7    80.00   79.00   78.00   77.00   76.00   75.00   74.00   73.00   72.00   71.00   70.00   69.00   68.00   67.00   66.00
       65.00   64.00   63.00   62.00   61.00   60.00
  8    80.00   79.00   78.00   77.00   76.00   75.00   74.00   73.00   72.00   71.00   70.00   69.00   68.00   67.00   66.00
       65.00   64.00   63.00   62.00   61.00   60.00
  9    80.00   79.00   78.00   77.00   76.00   75.00   74.00   73.00   72.00   71.00   70.00   69.00   68.00   67.00   66.00
       65.00   64.00   63.00   62.00   61.00   60.00
 10    80.00   79.00   78.00   77.00   76.00   75.00   74.00   73.00   72.00   71.00   70.00   69.00   68.00   67.00   66.00
       65.00   64.00   63.00   62.00   61.00   60.00
 11    80.00   79.00   78.00   77.00   76.00   75.00   74.00   73.00   72.00   71.00   70.00   69.00   68.00   67.00   66.00
       65.00   64.00   63.00   62.00   61.00   60.00
 12    80.00   79.00   78.00   77.00   76.00   75.00   74.00   73.00   72.00   71.00   70.00   69.00   68.00   67.00   66.00
       65.00   64.00   63.00   62.00   61.00   60.00
 13    80.00   79.00   78.00   77.00   76.00   75.00   74.00   73.00   72.00   71.00   70.00   69.00   68.00   67.00   66.00
       65.00   64.00   63.00   62.00   61.00   60.00
 14    80.00   79.00   78.00   77.00   76.00   75.00   74.00   73.00   72.00   71.00   70.00   69.00   68.00   67.00   66.00
       65.00   64.00   63.00   62.00   61.00   60.00
 15    80.00   79.00   78.00   77.00   76.00   75.00   74.00   73.00   72.00   71.00   70.00   69.00   68.00   67.00   66.00
       65.00   64.00   63.00   62.00   61.00   60.00



                      INITIAL HEAD FOR LAYER   4
READING ON UNIT    1 WITH FORMAT: (10F13.0)           

          1       2       3       4       5       6       7       8       9      10      11      12      13      14      15
         16      17      18      19      20      21
...........................................................................................................................
  1    80.00   79.00   78.00   77.00   76.00   75.00   74.00   73.00   72.00   71.00   70.00   69.00   68.00   67.00   66.00
       65.00   64.00   63.00   62.00   61.00   60.00
  2    80.00   79.00   78.00   77.00   76.00   75.00   74.00   73.00   72.00   71.00   70.00   69.00   68.00   67.00   66.00
       65.00   64.00   63.00   62.00   61.00   60.00
  3    80.00   79.00   78.00   77.00   76.00   75.00   74.00   73.00   72.00   71.00   70.00   69.00   68.00   67.00   66.00
       65.00   64.00   63.00   62.00   61.00   60.00
  4    80.00   79.00   78.00   77.00   76.00   75.00   74.00   73.00   72.00   71.00   70.00   69.00   68.00   67.00   66.00
       65.00   64.00   63.00   62.00   61.00   60.00
  5    80.00   79.00   78.00   77.00   76.00   75.00   74.00   73.00   72.00   71.00   70.00   69.00   68.00   67.00   66.00
       65.00   64.00   63.00   62.00   61.00   60.00
  6    80.00   79.00   78.00   77.00   76.00   75.00   74.00   73.00   72.00   71.00   70.00   69.00   68.00   67.00   66.00
       65.00   64.00   63.00   62.00   61.00   60.00
  7    80.00   79.00   78.00   77.00   76.00   75.00   74.00   73.00   72.00   71.00   70.00   69.00   68.00   67.00   66.00
       65.00   64.00   63.00   62.00   61.00   60.00
  8    80.00   79.00   78.00   77.00   76.00   75.00   74.00   73.00   72.00   71.00   70.00   69.00   68.00   67.00   66.00
       65.00   64.00   63.00   62.00   61.00   60.00
  9    80.00   79.00   78.00   77.00   76.00   75.00   74.00   73.00   72.00   71.00   70.00   69.00   68.00   67.00   66.00
       65.00   64.00   63.00   62.00   61.00   60.00
 10    80.00   79.00   78.00   77.00   76.00   75.00   74.00   73.00   72.00   71.00   70.00   69.00   68.00   67.00   66.00
       65.00   64.00   63.00   62.00   61.00   60.00
 11    80.00   79.00   78.00   77.00   76.00   75.00   74.00   73.00   72.00   71.00   70.00   69.00   68.00   67.00   66.00
       65.00   64.00   63.00   62.00   61.00   60.00
 12    80.00   79.00   78.00   77.00   76.00   75.00   74.00   73.00   72.00   71.00   70.00   69.00   68.00   67.00   66.00
       65.00   64.00   63.00   62.00   61.00   60.00
 13    80.00   79.00   78.00   77.00   76.00   75.00   74.00   73.00   72.00   71.00   70.00   69.00   68.00   67.00   66.00
       65.00   64.00   63.00   62.00   61.00   60.00
 14    80.00   79.00   78.00   77.00   76.00   75.00   74.00   73.00   72.00   71.00   70.00   69.00   68.00   67.00   66.00
       65.00   64.00   63.00   62.00   61.00   60.00
 15    80.00   79.00   78.00   77.00   76.00   75.00   74.00   73.00   72.00   71.00   70.00   69.00   68.00   67.00   66.00
       65.00   64.00   63.00   62.00   61.00   60.00



                      INITIAL HEAD FOR LAYER   5
READING ON UNIT    1 WITH FORMAT: (10F13.0)           

          1       2       3       4       5       6       7       8       9      10      11      12      13      14      15
         16      17      18      19      20      21
...........................................................................................................................
  1    80.00   79.00   78.00   77.00   76.00   75.00   74.00   73.00   72.00   71.00   70.00   69.00   68.00   67.00   66.00
       65.00   64.00   63.00   62.00   61.00   60.00
  2    80.00   79.00   78.00   77.00   76.00   75.00   74.00   73.00   72.00   71.00   70.00   69.00   68.00   67.00   66.00
       65.00   64.00   63.00   62.00   61.00   60.00
  3    80.00   79.00   78.00   77.00   76.00   75.00   74.00   73.00   72.00   71.00   70.00   69.00   68.00   67.00   66.00
       65.00   64.00   63.00   62.00   61.00   60.00
  4    80.00   79.00   78.00   77.00   76.00   75.00   74.00   73.00   72.00   71.00   70.00   69.00   68.00   67.00   66.00
       65.00   64.00   63.00   62.00   61.00   60.00
  5    80.00   79.00   78.00   77.00   76.00   75.00   74.00   73.00   72.00   71.00   70.00   69.00   68.00   67.00   66.00
       65.00   64.00   63.00   62.00   61.00   60.00
  6    80.00   79.00   78.00   77.00   76.00   75.00   74.00   73.00   72.00   71.00   70.00   69.00   68.00   67.00   66.00
       65.00   64.00   63.00   62.00   61.00   60.00
  7    80.00   79.00   78.00   77.00   76.00   75.00   74.00   73.00   72.00   71.00   70.00   69.00   68.00   67.00   66.00
       65.00   64.00   63.00   62.00   61.00   60.00
  8    80.00   79.00   78.00   77.00   76.00   75.00   74.00   73.00   72.00   71.00   70.00   69.00   68.00   67.00   66.00
       65.00   64.00   63.00   62.00   61.00   60.00
  9    80.00   79.00   78.00   77.00   76.00   75.00   74.00   73.00   72.00   71.00   70.00   69.00   68.00   67.00   66.00
       65.00   64.00   63.00   62.00   61.00   60.00
 10    80.00   79.00   78.00   77.00   76.00   75.00   74.00   73.00   72.00   71.00   70.00   69.00   68.00   67.00   66.00
       65.00   64.00   63.00   62.00   61.00   60.00
 11    80.00   79.00   78.00   77.00   76.00   75.00   74.00   73.00   72.00   71.00   70.00   69.00   68.00   67.00   66.00
       65.00   64.00   63.00   62.00   61.00   60.00
 12    80.00   79.00   78.00   77.00   76.00   75.00   74.00   73.00   72.00   71.00   70.00   69.00   68.00   67.00   66.00
       65.00   64.00   63.00   62.00   61.00   60.00
 13    80.00   79.00   78.00   77.00   76.00   75.00   74.00   73.00   72.00   71.00   70.00   69.00   68.00   67.00   66.00
       65.00   64.00   63.00   62.00   61.00   60.00
 14    80.00   79.00   78.00   77.00   76.00   75.00   74.00   73.00   72.00   71.00   70.00   69.00   68.00   67.00   66.00
       65.00   64.00   63.00   62.00   61.00   60.00
 15    80.00   79.00   78.00   77.00   76.00   75.00   74.00   73.00   72.00   71.00   70.00   69.00   68.00   67.00   66.00
       65.00   64.00   63.00   62.00   61.00   60.00



                      INITIAL HEAD FOR LAYER   6
READING ON UNIT    1 WITH FORMAT: (10F13.0)           

          1       2       3       4       5       6       7       8       9      10      11      12      13      14      15
         16      17      18      19      20      21
...........................................................................................................................
  1    80.00   79.00   78.00   77.00   76.00   75.00   74.00   73.00   72.00   71.00   70.00   69.00   68.00   67.00   66.00
       65.00   64.00   63.00   62.00   61.00   60.00
  2    80.00   79.00   78.00   77.00   76.00   75.00   74.00   73.00   72.00   71.00   70.00   69.00   68.00   67.00   66.00
       65.00   64.00   63.00   62.00   61.00   60.00
  3    80.00   79.00   78.00   77.00   76.00   75.00   74.00   73.00   72.00   71.00   70.00   69.00   68.00   67.00   66.00
       65.00   64.00   63.00   62.00   61.00   60.00
  4    80.00   79.00   78.00   77.00   76.00   75.00   74.00   73.00   72.00   71.00   70.00   69.00   68.00   67.00   66.00
       65.00   64.00   63.00   62.00   61.00   60.00
  5    80.00   79.00   78.00   77.00   76.00   75.00   74.00   73.00   72.00   71.00   70.00   69.00   68.00   67.00   66.00
       65.00   64.00   63.00   62.00   61.00   60.00
  6    80.00   79.00   78.00   77.00   76.00   75.00   74.00   73.00   72.00   71.00   70.00   69.00   68.00   67.00   66.00
       65.00   64.00   63.00   62.00   61.00   60.00
  7    80.00   79.00   78.00   77.00   76.00   75.00   74.00   73.00   72.00   71.00   70.00   69.00   68.00   67.00   66.00
       65.00   64.00   63.00   62.00   61.00   60.00
  8    80.00   79.00   78.00   77.00   76.00   75.00   74.00   73.00   72.00   71.00   70.00   69.00   68.00   67.00   66.00
       65.00   64.00   63.00   62.00   61.00   60.00
  9    80.00   79.00   78.00   77.00   76.00   75.00   74.00   73.00   72.00   71.00   70.00   69.00   68.00   67.00   66.00
       65.00   64.00   63.00   62.00   61.00   60.00
 10    80.00   79.00   78.00   77.00   76.00   75.00   74.00   73.00   72.00   71.00   70.00   69.00   68.00   67.00   66.00
       65.00   64.00   63.00   62.00   61.00   60.00
 11    80.00   79.00   78.00   77.00   76.00   75.00   74.00   73.00   72.00   71.00   70.00   69.00   68.00   67.00   66.00
       65.00   64.00   63.00   62.00   61.00   60.00
 12    80.00   79.00   78.00   77.00   76.00   75.00   74.00   73.00   72.00   71.00   70.00   69.00   68.00   67.00   66.00
       65.00   64.00   63.00   62.00   61.00   60.00
 13    80.00   79.00   78.00   77.00   76.00   75.00   74.00   73.00   72.00   71.00   70.00   69.00   68.00   67.00   66.00
       65.00   64.00   63.00   62.00   61.00   60.00
 14    80.00   79.00   78.00   77.00   76.00   75.00   74.00   73.00   72.00   71.00   70.00   69.00   68.00   67.00   66.00
       65.00   64.00   63.00   62.00   61.00   60.00
 15    80.00   79.00   78.00   77.00   76.00   75.00   74.00   73.00   72.00   71.00   70.00   69.00   68.00   67.00   66.00
       65.00   64.00   63.00   62.00   61.00   60.00



                      INITIAL HEAD FOR LAYER   7
READING ON UNIT    1 WITH FORMAT: (10F13.0)           

          1       2       3       4       5       6       7       8       9      10      11      12      13      14      15
         16      17      18      19      20      21
...........................................................................................................................
  1    80.00   79.00   78.00   77.00   76.00   75.00   74.00   73.00   72.00   71.00   70.00   69.00   68.00   67.00   66.00
       65.00   64.00   63.00   62.00   61.00   60.00
  2    80.00   79.00   78.00   77.00   76.00   75.00   74.00   73.00   72.00   71.00   70.00   69.00   68.00   67.00   66.00
       65.00   64.00   63.00   62.00   61.00   60.00
  3    80.00   79.00   78.00   77.00   76.00   75.00   74.00   73.00   72.00   71.00   70.00   69.00   68.00   67.00   66.00
       65.00   64.00   63.00   62.00   61.00   60.00
  4    80.00   79.00   78.00   77.00   76.00   75.00   74.00   73.00   72.00   71.00   70.00   69.00   68.00   67.00   66.00
       65.00   64.00   63.00   62.00   61.00   60.00
  5    80.00   79.00   78.00   77.00   76.00   75.00   74.00   73.00   72.00   71.00   70.00   69.00   68.00   67.00   66.00
       65.00   64.00   63.00   62.00   61.00   60.00
  6    80.00   79.00   78.00   77.00   76.00   75.00   74.00   73.00   72.00   71.00   70.00   69.00   68.00   67.00   66.00
       65.00   64.00   63.00   62.00   61.00   60.00
  7    80.00   79.00   78.00   77.00   76.00   75.00   74.00   73.00   72.00   71.00   70.00   69.00   68.00   67.00   66.00
       65.00   64.00   63.00   62.00   61.00   60.00
  8    80.00   79.00   78.00   77.00   76.00   75.00   74.00   73.00   72.00   71.00   70.00   69.00   68.00   67.00   66.00
       65.00   64.00   63.00   62.00   61.00   60.00
  9    80.00   79.00   78.00   77.00   76.00   75.00   74.00   73.00   72.00   71.00   70.00   69.00   68.00   67.00   66.00
       65.00   64.00   63.00   62.00   61.00   60.00
 10    80.00   79.00   78.00   77.00   76.00   75.00   74.00   73.00   72.00   71.00   70.00   69.00   68.00   67.00   66.00
       65.00   64.00   63.00   62.00   61.00   60.00
 11    80.00   79.00   78.00   77.00   76.00   75.00   74.00   73.00   72.00   71.00   70.00   69.00   68.00   67.00   66.00
       65.00   64.00   63.00   62.00   61.00   60.00
 12    80.00   79.00   78.00   77.00   76.00   75.00   74.00   73.00   72.00   71.00   70.00   69.00   68.00   67.00   66.00
       65.00   64.00   63.00   62.00   61.00   60.00
 13    80.00   79.00   78.00   77.00   76.00   75.00   74.00   73.00   72.00   71.00   70.00   69.00   68.00   67.00   66.00
       65.00   64.00   63.00   62.00   61.00   60.00
 14    80.00   79.00   78.00   77.00   76.00   75.00   74.00   73.00   72.00   71.00   70.00   69.00   68.00   67.00   66.00
       65.00   64.00   63.00   62.00   61.00   60.00
 15    80.00   79.00   78.00   77.00   76.00   75.00   74.00   73.00   72.00   71.00   70.00   69.00   68.00   67.00   66.00
       65.00   64.00   63.00   62.00   61.00   60.00



                      INITIAL HEAD FOR LAYER   8
READING ON UNIT    1 WITH FORMAT: (10F13.0)           

          1       2       3       4       5       6       7       8       9      10      11      12      13      14      15
         16      17      18      19      20      21
...........................................................................................................................
  1    80.00   79.00   78.00   77.00   76.00   75.00   74.00   73.00   72.00   71.00   70.00   69.00   68.00   67.00   66.00
       65.00   64.00   63.00   62.00   61.00   60.00
  2    80.00   79.00   78.00   77.00   76.00   75.00   74.00   73.00   72.00   71.00   70.00   69.00   68.00   67.00   66.00
       65.00   64.00   63.00   62.00   61.00   60.00
  3    80.00   79.00   78.00   77.00   76.00   75.00   74.00   73.00   72.00   71.00   70.00   69.00   68.00   67.00   66.00
       65.00   64.00   63.00   62.00   61.00   60.00
  4    80.00   79.00   78.00   77.00   76.00   75.00   74.00   73.00   72.00   71.00   70.00   69.00   68.00   67.00   66.00
       65.00   64.00   63.00   62.00   61.00   60.00
  5    80.00   79.00   78.00   77.00   76.00   75.00   74.00   73.00   72.00   71.00   70.00   69.00   68.00   67.00   66.00
       65.00   64.00   63.00   62.00   61.00   60.00
  6    80.00   79.00   78.00   77.00   76.00   75.00   74.00   73.00   72.00   71.00   70.00   69.00   68.00   67.00   66.00
       65.00   64.00   63.00   62.00   61.00   60.00
  7    80.00   79.00   78.00   77.00   76.00   75.00   74.00   73.00   72.00   71.00   70.00   69.00   68.00   67.00   66.00
       65.00   64.00   63.00   62.00   61.00   60.00
  8    80.00   79.00   78.00   77.00   76.00   75.00   74.00   73.00   72.00   71.00   70.00   69.00   68.00   67.00   66.00
       65.00   64.00   63.00   62.00   61.00   60.00
  9    80.00   79.00   78.00   77.00   76.00   75.00   74.00   73.00   72.00   71.00   70.00   69.00   68.00   67.00   66.00
       65.00   64.00   63.00   62.00   61.00   60.00
 10    80.00   79.00   78.00   77.00   76.00   75.00   74.00   73.00   72.00   71.00   70.00   69.00   68.00   67.00   66.00
       65.00   64.00   63.00   62.00   61.00   60.00
 11    80.00   79.00   78.00   77.00   76.00   75.00   74.00   73.00   72.00   71.00   70.00   69.00   68.00   67.00   66.00
       65.00   64.00   63.00   62.00   61.00   60.00
 12    80.00   79.00   78.00   77.00   76.00   75.00   74.00   73.00   72.00   71.00   70.00   69.00   68.00   67.00   66.00
       65.00   64.00   63.00   62.00   61.00   60.00
 13    80.00   79.00   78.00   77.00   76.00   75.00   74.00   73.00   72.00   71.00   70.00   69.00   68.00   67.00   66.00
       65.00   64.00   63.00   62.00   61.00   60.00
 14    80.00   79.00   78.00   77.00   76.00   75.00   74.00   73.00   72.00   71.00   70.00   69.00   68.00   67.00   66.00
       65.00   64.00   63.00   62.00   61.00   60.00
 15    80.00   79.00   78.00   77.00   76.00   75.00   74.00   73.00   72.00   71.00   70.00   69.00   68.00   67.00   66.00
       65.00   64.00   63.00   62.00   61.00   60.00

OUTPUT CONTROL IS SPECIFIED EVERY TIME STEP
HEAD PRINT FORMAT CODE IS   4    DRAWDOWN PRINT FORMAT CODE IS   4
HEADS WILL BE SAVED ON UNIT    0    DRAWDOWNS WILL BE SAVED ON UNIT    0

COLUMN TO ROW ANISOTROPY =   1.00000    

    TRANSMIS. ALONG ROWS =   10.0000     FOR LAYER   1

VERT HYD COND /THICKNESS =  0.100000     FOR LAYER   1

    TRANSMIS. ALONG ROWS =   10.0000     FOR LAYER   2

VERT HYD COND /THICKNESS =  0.100000     FOR LAYER   2

    TRANSMIS. ALONG ROWS =   10.0000     FOR LAYER   3

VERT HYD COND /THICKNESS =  0.100000     FOR LAYER   3

    TRANSMIS. ALONG ROWS =   10.0000     FOR LAYER   4

VERT HYD COND /THICKNESS =  0.100000     FOR LAYER   4

    TRANSMIS. ALONG ROWS =   10.0000     FOR LAYER   5

VERT HYD COND /THICKNESS =  0.100000     FOR LAYER   5

    TRANSMIS. ALONG ROWS =   10.0000     FOR LAYER   6

VERT HYD COND /THICKNESS =  0.100000     FOR LAYER   6

    TRANSMIS. ALONG ROWS =   10.0000     FOR LAYER   7

VERT HYD COND /THICKNESS =  0.100000     FOR LAYER   7

    TRANSMIS. ALONG ROWS =   10.0000     FOR LAYER   8


    0 Well parameters
                           STRESS PERIOD NO.    1, LENGTH =   25.00000    
                           -----------------------------------------------

                             NUMBER OF TIME STEPS =     1

                              MULTIPLIER FOR DELT =     1.000

                           INITIAL TIME STEP SIZE =   25.00000    

WELL NO.  LAYER   ROW   COL   STRESS RATE         
--------------------------------------------------
     1      7      8      3      0.5000    

     1 WELL

SOLVING FOR HEAD 

   26 ITERATIONS FOR TIME STEP   1 IN STRESS PERIOD    1

MAXIMUM HEAD CHANGE FOR EACH ITERATION:

   HEAD CHANGE   HEAD CHANGE   HEAD CHANGE   HEAD CHANGE   HEAD CHANGE
 LAYER,ROW,COL LAYER,ROW,COL LAYER,ROW,COL LAYER,ROW,COL LAYER,ROW,COL
----------------------------------------------------------------------
    0.1042E-01    0.1364E-02    0.6910E-03    0.4087E-03    0.2232E-03
 (  7,  8,  3) (  8,  7,  3) (  8,  8,  4) (  7,  7,  7) (  8, 11, 10)
   -0.1223E-04   -0.1490E-04    0.1873E-04    0.2716E-04    0.1661E-04
 (  8,  7,  7) (  8,  7,  7) (  5,  8, 15) (  8,  6, 14) (  1, 14, 14)
    0.3516E-06    0.4359E-06    0.7557E-06    0.8990E-06    0.6728E-06
 (  8, 10, 10) (  4,  4,  5) (  8,  8,  7) (  1, 14,  9) (  8,  3, 10)
    0.1926E-07    0.2029E-07    0.3064E-07    0.3976E-07    0.3661E-07
 (  1,  9, 19) (  2, 14, 18) (  1,  7,  8) (  4, 11, 11) (  1,  9, 13)
    0.1159E-08    0.1574E-08    0.2679E-08    0.3833E-08    0.2414E-08
 (  8, 10, 18) (  7,  3, 12) (  8,  2, 12) (  6,  1, 11) (  8,  1, 14)
    0.8109E-10
 (  1,  8, 15)


HEAD/DRAWDOWN PRINTOUT FLAG = 1     TOTAL BUDGET PRINTOUT FLAG = 0
CELL-BY-CELL FLOW TERM FLAG = 1

OUTPUT FLAGS FOR ALL LAYERS ARE THE SAME:
  HEAD    DRAWDOWN  HEAD  DRAWDOWN
PRINTOUT  PRINTOUT  SAVE    SAVE
----------------------------------
    1         0       1       0


***Link-MT3DMS Package***
OPENING LINK-MT3DMS OUTPUT FILE: p7.ftl                                                                                                                                                                                                  
ON UNIT NUMBER:   333
FILE TYPE: UNFORMATTED
HEADER OPTION: STANDARD
***Link-MT3DMS Package***


SAVING SATURATED THICKNESS AND FLOW TERMS ON UNIT  333 FOR MT3DMS
BY THE LINK-MT3DMS PACKAGE V6.3 AT TIME STEP    1, STRESS PERIOD    1

             HEAD IN LAYER   1 AT END OF TIME STEP   1 IN STRESS PERIOD    1
 ---------------------------------------------------------------------------

          1       2       3       4       5       6       7       8       9      10      11      12      13      14      15
         16      17      18      19      20      21
...........................................................................................................................
  1    80.00   79.00   78.00   77.00   76.00   75.00   74.00   73.00   72.00   71.00   70.00   69.00   68.00   67.00   66.00
       65.00   64.00   63.00   62.00   61.00   60.00
  2    80.00   79.00   78.00   77.00   76.00   75.00   74.00   73.00   72.00   71.00   70.00   69.00   68.00   67.00   66.00
       65.00   64.00   63.00   62.00   61.00   60.00
  3    80.00   79.00   78.00   77.00   76.00   75.00   74.00   73.00   72.00   71.00   70.00   69.00   68.00   67.00   66.00
       65.00   64.00   63.00   62.00   61.00   60.00
  4    80.00   79.00   78.00   77.00   76.00   75.00   74.00   73.00   72.00   71.00   70.00   69.00   68.00   67.00   66.00
       65.00   64.00   63.00   62.00   61.00   60.00
  5    80.00   79.00   78.00   77.00   76.00   75.00   74.00   73.00   72.00   71.00   70.00   69.00   68.00   67.00   66.00
       65.00   64.00   63.00   62.00   61.00   60.00
  6    80.00   79.00   78.00   77.00   76.00   75.00   74.00   73.00   72.00   71.00   70.00   69.00   68.00   67.00   66.00
       65.00   64.00   63.00   62.00   61.00   60.00
  7    80.00   79.00   78.00   77.00   76.00   75.00   74.00   73.00   72.00   71.00   70.00   69.00   68.00   67.00   66.00
       65.00   64.00   63.00   62.00   61.00   60.00
  8    80.00   79.00   78.00   77.00   76.00   75.00   74.00   73.00   72.00   71.00   70.00   69.00   68.00   67.00   66.00
       65.00   64.00   63.00   62.00   61.00   60.00
  9    80.00   79.00   78.00   77.00   76.00   75.00   74.00   73.00   72.00   71.00   70.00   69.00   68.00   67.00   66.00
       65.00   64.00   63.00   62.00   61.00   60.00
 10    80.00   79.00   78.00   77.00   76.00   75.00   74.00   73.00   72.00   71.00   70.00   69.00   68.00   67.00   66.00
       65.00   64.00   63.00   62.00   61.00   60.00
 11    80.00   79.00   78.00   77.00   76.00   75.00   74.00   73.00   72.00   71.00   70.00   69.00   68.00   67.00   66.00
       65.00   64.00   63.00   62.00   61.00   60.00
 12    80.00   79.00   78.00   77.00   76.00   75.00   74.00   73.00   72.00   71.00   70.00   69.00   68.00   67.00   66.00
       65.00   64.00   63.00   62.00   61.00   60.00
 13    80.00   79.00   78.00   77.00   76.00   75.00   74.00   73.00   72.00   71.00   70.00   69.00   68.00   67.00   66.00
       65.00   64.00   63.00   62.00   61.00   60.00
 14    80.00   79.00   78.00   77.00   76.00   75.00   74.00   73.00   72.00   71.00   70.00   69.00   68.00   67.00   66.00
       65.00   64.00   63.00   62.00   61.00   60.00
 15    80.00   79.00   78.00   77.00   76.00   75.00   74.00   73.00   72.00   71.00   70.00   69.00   68.00   67.00   66.00
       65.00   64.00   63.00   62.00   61.00   60.00
             HEAD IN LAYER   2 AT END OF TIME STEP   1 IN STRESS PERIOD    1
 ---------------------------------------------------------------------------

          1       2       3       4       5       6       7       8       9      10      11      12      13      14      15
         16      17      18      19      20      21
...........................................................................................................................
  1    80.00   79.00   78.00   77.00   76.00   75.00   74.00   73.00   72.00   71.00   70.00   69.00   68.00   67.00   66.00
       65.00   64.00   63.00   62.00   61.00   60.00
  2    80.00   79.00   78.00   77.00   76.00   75.00   74.00   73.00   72.00   71.00   70.00   69.00   68.00   67.00   66.00
       65.00   64.00   63.00   62.00   61.00   60.00
  3    80.00   79.00   78.00   77.00   76.00   75.00   74.00   73.00   72.00   71.00   70.00   69.00   68.00   67.00   66.00
       65.00   64.00   63.00   62.00   61.00   60.00
  4    80.00   79.00   78.00   77.00   76.00   75.00   74.00   73.00   72.00   71.00   70.00   69.00   68.00   67.00   66.00
       65.00   64.00   63.00   62.00   61.00   60.00
  5    80.00   79.00   78.00   77.00   76.00   75.00   74.00   73.00   72.00   71.00   70.00   69.00   68.00   67.00   66.00
       65.00   64.00   63.00   62.00   61.00   60.00
  6    80.00   79.00   78.00   77.00   76.00   75.00   74.00   73.00   72.00   71.00   70.00   69.00   68.00   67.00   66.00
       65.00   64.00   63.00   62.00   61.00   60.00
  7    80.00   79.00   78.00   77.00   76.00   75.00   74.00   73.00   72.00   71.00   70.00   69.00   68.00   67.00   66.00
       65.00   64.00   63.00   62.00   61.00   60.00
  8    80.00   79.00   78.00   77.00   76.00   75.00   74.00   73.00   72.00   71.00   70.00   69.00   68.00   67.00   66.00
       65.00   64.00   63.00   62.00   61.00   60.00
  9    80.00   79.00   78.00   77.00   76.00   75.00   74.00   73.00   72.00   71.00   70.00   69.00   68.00   67.00   66.00
       65.00   64.00   63.00   62.00   61.00   60.00
 10    80.00   79.00   78.00   77.00   76.00   75.00   74.00   73.00   72.00   71.00   70.00   69.00   68.00   67.00   66.00
       65.00   64.00   63.00   62.00   61.00   60.00
 11    80.00   79.00   78.00   77.00   76.00   75.00   74.00   73.00   72.00   71.00   70.00   69.00   68.00   67.00   66.00
       65.00   64.00   63.00   62.00   61.00   60.00
 12    80.00   79.00   78.00   77.00   76.00   75.00   74.00   73.00   72.00   71.00   70.00   69.00   68.00   67.00   66.00
       65.00   64.00   63.00   62.00   61.00   60.00
 13    80.00   79.00   78.00   77.00   76.00   75.00   74.00   73.00   72.00   71.00   70.00   69.00   68.00   67.00   66.00
       65.00   64.00   63.00   62.00   61.00   60.00
 14    80.00   79.00   78.00   77.00   76.00   75.00   74.00   73.00   72.00   71.00   70.00   69.00   68.00   67.00   66.00
       65.00   64.00   63.00   62.00   61.00   60.00
 15    80.00   79.00   78.00   77.00   76.00   75.00   74.00   73.00   72.00   71.00   70.00   69.00   68.00   67.00   66.00
       65.00   64.00   63.00   62.00   61.00   60.00
             HEAD IN LAYER   3 AT END OF TIME STEP   1 IN STRESS PERIOD    1
 ---------------------------------------------------------------------------

          1       2       3       4       5       6       7       8       9      10      11      12      13      14      15
         16      17      18      19      20      21
...........................................................................................................................
  1    80.00   79.00   78.00   77.00   76.00   75.00   74.00   73.00   72.00   71.00   70.00   69.00   68.00   67.00   66.00
       65.00   64.00   63.00   62.00   61.00   60.00
  2    80.00   79.00   78.00   77.00   76.00   75.00   74.00   73.00   72.00   71.00   70.00   69.00   68.00   67.00   66.00
       65.00   64.00   63.00   62.00   61.00   60.00
  3    80.00   79.00   78.00   77.00   76.00   75.00   74.00   73.00   72.00   71.00   70.00   69.00   68.00   67.00   66.00
       65.00   64.00   63.00   62.00   61.00   60.00
  4    80.00   79.00   78.00   77.00   76.00   75.00   74.00   73.00   72.00   71.00   70.00   69.00   68.00   67.00   66.00
       65.00   64.00   63.00   62.00   61.00   60.00
  5    80.00   79.00   78.00   77.00   76.00   75.00   74.00   73.00   72.00   71.00   70.00   69.00   68.00   67.00   66.00
       65.00   64.00   63.00   62.00   61.00   60.00
  6    80.00   79.00   78.00   77.00   76.00   75.00   74.00   73.00   72.00   71.00   70.00   69.00   68.00   67.00   66.00
       65.00   64.00   63.00   62.00   61.00   60.00
  7    80.00   79.00   78.00   77.00   76.00   75.00   74.00   73.00   72.00   71.00   70.00   69.00   68.00   67.00   66.00
       65.00   64.00   63.00   62.00   61.00   60.00
  8    80.00   79.00   78.00   77.00   76.00   75.00   74.00   73.00   72.00   71.00   70.00   69.00   68.00   67.00   66.00
       65.00   64.00   63.00   62.00   61.00   60.00
  9    80.00   79.00   78.00   77.00   76.00   75.00   74.00   73.00   72.00   71.00   70.00   69.00   68.00   67.00   66.00
       65.00   64.00   63.00   62.00   61.00   60.00
 10    80.00   79.00   78.00   77.00   76.00   75.00   74.00   73.00   72.00   71.00   70.00   69.00   68.00   67.00   66.00
       65.00   64.00   63.00   62.00   61.00   60.00
 11    80.00   79.00   78.00   77.00   76.00   75.00   74.00   73.00   72.00   71.00   70.00   69.00   68.00   67.00   66.00
       65.00   64.00   63.00   62.00   61.00   60.00
 12    80.00   79.00   78.00   77.00   76.00   75.00   74.00   73.00   72.00   71.00   70.00   69.00   68.00   67.00   66.00
       65.00   64.00   63.00   62.00   61.00   60.00
 13    80.00   79.00   78.00   77.00   76.00   75.00   74.00   73.00   72.00   71.00   70.00   69.00   68.00   67.00   66.00
       65.00   64.00   63.00   62.00   61.00   60.00
 14    80.00   79.00   78.00   77.00   76.00   75.00   74.00   73.00   72.00   71.00   70.00   69.00   68.00   67.00   66.00
       65.00   64.00   63.00   62.00   61.00   60.00
 15    80.00   79.00   78.00   77.00   76.00   75.00   74.00   73.00   72.00   71.00   70.00   69.00   68.00   67.00   66.00
       65.00   64.00   63.00   62.00   61.00   60.00
             HEAD IN LAYER   4 AT END OF TIME STEP   1 IN STRESS PERIOD    1
 ---------------------------------------------------------------------------

          1       2       3       4       5       6       7       8       9      10      11      12      13      14      15
         16      17      18      19      20      21
...........................................................................................................................
  1    80.00   79.00   78.00   77.00   76.00   75.00   74.00   73.00   72.00   71.00   70.00   69.00   68.00   67.00   66.00
       65.00   64.00   63.00   62.00   61.00   60.00
  2    80.00   79.00   78.00   77.00   76.00   75.00   74.00   73.00   72.00   71.00   70.00   69.00   68.00   67.00   66.00
       65.00   64.00   63.00   62.00   61.00   60.00
  3    80.00   79.00   78.00   77.00   76.00   75.00   74.00   73.00   72.00   71.00   70.00   69.00   68.00   67.00   66.00
       65.00   64.00   63.00   62.00   61.00   60.00
  4    80.00   79.00   78.00   77.00   76.00   75.00   74.00   73.00   72.00   71.00   70.00   69.00   68.00   67.00   66.00
       65.00   64.00   63.00   62.00   61.00   60.00
  5    80.00   79.00   78.00   77.00   76.00   75.00   74.00   73.00   72.00   71.00   70.00   69.00   68.00   67.00   66.00
       65.00   64.00   63.00   62.00   61.00   60.00
  6    80.00   79.00   78.00   77.00   76.00   75.00   74.00   73.00   72.00   71.00   70.00   69.00   68.00   67.00   66.00
       65.00   64.00   63.00   62.00   61.00   60.00
  7    80.00   79.00   78.00   77.00   76.00   75.00   74.00   73.00   72.00   71.00   70.00   69.00   68.00   67.00   66.00
       65.00   64.00   63.00   62.00   61.00   60.00
  8    80.00   79.00   78.00   77.00   76.00   75.00   74.00   73.00   72.00   71.00   70.00   69.00   68.00   67.00   66.00
       65.00   64.00   63.00   62.00   61.00   60.00
  9    80.00   79.00   78.00   77.00   76.00   75.00   74.00   73.00   72.00   71.00   70.00   69.00   68.00   67.00   66.00
       65.00   64.00   63.00   62.00   61.00   60.00
 10    80.00   79.00   78.00   77.00   76.00   75.00   74.00   73.00   72.00   71.00   70.00   69.00   68.00   67.00   66.00
       65.00   64.00   63.00   62.00   61.00   60.00
 11    80.00   79.00   78.00   77.00   76.00   75.00   74.00   73.00   72.00   71.00   70.00   69.00   68.00   67.00   66.00
       65.00   64.00   63.00   62.00   61.00   60.00
 12    80.00   79.00   78.00   77.00   76.00   75.00   74.00   73.00   72.00   71.00   70.00   69.00   68.00   67.00   66.00
       65.00   64.00   63.00   62.00   61.00   60.00
 13    80.00   79.00   78.00   77.00   76.00   75.00   74.00   73.00   72.00   71.00   70.00   69.00   68.00   67.00   66.00
       65.00   64.00   63.00   62.00   61.00   60.00
 14    80.00   79.00   78.00   77.00   76.00   75.00   74.00   73.00   72.00   71.00   70.00   69.00   68.00   67.00   66.00
       65.00   64.00   63.00   62.00   61.00   60.00
 15    80.00   79.00   78.00   77.00   76.00   75.00   74.00   73.00   72.00   71.00   70.00   69.00   68.00   67.00   66.00
       65.00   64.00   63.00   62.00   61.00   60.00
             HEAD IN LAYER   5 AT END OF TIME STEP   1 IN STRESS PERIOD    1
 ---------------------------------------------------------------------------

          1       2       3       4       5       6       7       8       9      10      11      12      13      14      15
         16      17      18      19      20      21
...........................................................................................................................
  1    80.00   79.00   78.00   77.00   76.00   75.00   74.00   73.00   72.00   71.00   70.00   69.00   68.00   67.00   66.00
       65.00   64.00   63.00   62.00   61.00   60.00
  2    80.00   79.00   78.00   77.00   76.00   75.00   74.00   73.00   72.00   71.00   70.00   69.00   68.00   67.00   66.00
       65.00   64.00   63.00   62.00   61.00   60.00
  3    80.00   79.00   78.00   77.00   76.00   75.00   74.00   73.00   72.00   71.00   70.00   69.00   68.00   67.00   66.00
       65.00   64.00   63.00   62.00   61.00   60.00
  4    80.00   79.00   78.00   77.00   76.00   75.00   74.00   73.00   72.00   71.00   70.00   69.00   68.00   67.00   66.00
       65.00   64.00   63.00   62.00   61.00   60.00
  5    80.00   79.00   78.00   77.00   76.00   75.00   74.00   73.00   72.00   71.00   70.00   69.00   68.00   67.00   66.00
       65.00   64.00   63.00   62.00   61.00   60.00
  6    80.00   79.00   78.00   77.00   76.00   75.00   74.00   73.00   72.00   71.00   70.00   69.00   68.00   67.00   66.00
       65.00   64.00   63.00   62.00   61.00   60.00
  7    80.00   79.00   78.00   77.00   76.00   75.00   74.00   73.00   72.00   71.00   70.00   69.00   68.00   67.00   66.00
       65.00   64.00   63.00   62.00   61.00   60.00
  8    80.00   79.00   78.00   77.00   76.00   75.00   74.00   73.00   72.00   71.00   70.00   69.00   68.00   67.00   66.00
       65.00   64.00   63.00   62.00   61.00   60.00
  9    80.00   79.00   78.00   77.00   76.00   75.00   74.00   73.00   72.00   71.00   70.00   69.00   68.00   67.00   66.00
       65.00   64.00   63.00   62.00   61.00   60.00
 10    80.00   79.00   78.00   77.00   76.00   75.00   74.00   73.00   72.00   71.00   70.00   69.00   68.00   67.00   66.00
       65.00   64.00   63.00   62.00   61.00   60.00
 11    80.00   79.00   78.00   77.00   76.00   75.00   74.00   73.00   72.00   71.00   70.00   69.00   68.00   67.00   66.00
       65.00   64.00   63.00   62.00   61.00   60.00
 12    80.00   79.00   78.00   77.00   76.00   75.00   74.00   73.00   72.00   71.00   70.00   69.00   68.00   67.00   66.00
       65.00   64.00   63.00   62.00   61.00   60.00
 13    80.00   79.00   78.00   77.00   76.00   75.00   74.00   73.00   72.00   71.00   70.00   69.00   68.00   67.00   66.00
       65.00   64.00   63.00   62.00   61.00   60.00
 14    80.00   79.00   78.00   77.00   76.00   75.00   74.00   73.00   72.00   71.00   70.00   69.00   68.00   67.00   66.00
       65.00   64.00   63.00   62.00   61.00   60.00
 15    80.00   79.00   78.00   77.00   76.00   75.00   74.00   73.00   72.00   71.00   70.00   69.00   68.00   67.00   66.00
       65.00   64.00   63.00   62.00   61.00   60.00
             HEAD IN LAYER   6 AT END OF TIME STEP   1 IN STRESS PERIOD    1
 ---------------------------------------------------------------------------

          1       2       3       4       5       6       7       8       9      10      11      12      13      14      15
         16      17      18      19      20      21
...........................................................................................................................
  1    80.00   79.00   78.00   77.00   76.00   75.00   74.00   73.00   72.00   71.00   70.00   69.00   68.00   67.00   66.00
       65.00   64.00   63.00   62.00   61.00   60.00
  2    80.00   79.00   78.00   77.00   76.00   75.00   74.00   73.00   72.00   71.00   70.00   69.00   68.00   67.00   66.00
       65.00   64.00   63.00   62.00   61.00   60.00
  3    80.00   79.00   78.00   77.00   76.00   75.00   74.00   73.00   72.00   71.00   70.00   69.00   68.00   67.00   66.00
       65.00   64.00   63.00   62.00   61.00   60.00
  4    80.00   79.00   78.00   77.00   76.00   75.00   74.00   73.00   72.00   71.00   70.00   69.00   68.00   67.00   66.00
       65.00   64.00   63.00   62.00   61.00   60.00
  5    80.00   79.00   78.00   77.00   76.00   75.00   74.00   73.00   72.00   71.00   70.00   69.00   68.00   67.00   66.00
       65.00   64.00   63.00   62.00   61.00   60.00
  6    80.00   79.00   78.00   77.00   76.00   75.00   74.00   73.00   72.00   71.00   70.00   69.00   68.00   67.00   66.00
       65.00   64.00   63.00   62.00   61.00   60.00
  7    80.00   79.00   78.00   77.00   76.00   75.00   74.00   73.00   72.00   71.00   70.00   69.00   68.00   67.00   66.00
       65.00   64.00   63.00   62.00   61.00   60.00
  8    80.00   79.00   78.00   77.00   76.00   75.00   74.00   73.00   72.00   71.00   70.00   69.00   68.00   67.00   66.00
       65.00   64.00   63.00   62.00   61.00   60.00
  9    80.00   79.00   78.00   77.00   76.00   75.00   74.00   73.00   72.00   71.00   70.00   69.00   68.00   67.00   66.00
       65.00   64.00   63.00   62.00   61.00   60.00
 10    80.00   79.00   78.00   77.00   76.00   75.00   74.00   73.00   72.00   71.00   70.00   69.00   68.00   67.00   66.00
       65.00   64.00   63.00   62.00   61.00   60.00
 11    80.00   79.00   78.00   77.00   76.00   75.00   74.00   73.00   72.00   71.00   70.00   69.00   68.00   67.00   66.00
       65.00   64.00   63.00   62.00   61.00   60.00
 12    80.00   79.00   78.00   77.00   76.00   75.00   74.00   73.00   72.00   71.00   70.00   69.00   68.00   67.00   66.00
       65.00   64.00   63.00   62.00   61.00   60.00
 13    80.00   79.00   78.00   77.00   76.00   75.00   74.00   73.00   72.00   71.00   70.00   69.00   68.00   67.00   66.00
       65.00   64.00   63.00   62.00   61.00   60.00
 14    80.00   79.00   78.00   77.00   76.00   75.00   74.00   73.00   72.00   71.00   70.00   69.00   68.00   67.00   66.00
       65.00   64.00   63.00   62.00   61.00   60.00
 15    80.00   79.00   78.00   77.00   76.00   75.00   74.00   73.00   72.00   71.00   70.00   69.00   68.00   67.00   66.00
       65.00   64.00   63.00   62.00   61.00   60.00
             HEAD IN LAYER   7 AT END OF TIME STEP   1 IN STRESS PERIOD    1
 ---------------------------------------------------------------------------

          1       2       3       4       5       6       7       8       9      10      11      12      13      14      15
         16      17      18      19      20      21
...........................................................................................................................
  1    80.00   79.00   78.00   77.00   76.00   75.00   74.00   73.00   72.00   71.00   70.00   69.00   68.00   67.00   66.00
       65.00   64.00   63.00   62.00   61.00   60.00
  2    80.00   79.00   78.00   77.00   76.00   75.00   74.00   73.00   72.00   71.00   70.00   69.00   68.00   67.00   66.00
       65.00   64.00   63.00   62.00   61.00   60.00
  3    80.00   79.00   78.00   77.00   76.00   75.00   74.00   73.00   72.00   71.00   70.00   69.00   68.00   67.00   66.00
       65.00   64.00   63.00   62.00   61.00   60.00
  4    80.00   79.00   78.00   77.00   76.00   75.00   74.00   73.00   72.00   71.00   70.00   69.00   68.00   67.00   66.00
       65.00   64.00   63.00   62.00   61.00   60.00
  5    80.00   79.00   78.00   77.00   76.00   75.00   74.00   73.00   72.00   71.00   70.00   69.00   68.00   67.00   66.00
       65.00   64.00   63.00   62.00   61.00   60.00
  6    80.00   79.00   78.00   77.00   76.00   75.00   74.00   73.00   72.00   71.00   70.00   69.00   68.00   67.00   66.00
       65.00   64.00   63.00   62.00   61.00   60.00
  7    80.00   79.00   78.00   77.00   76.00   75.00   74.00   73.00   72.00   71.00   70.00   69.00   68.00   67.00   66.00
       65.00   64.00   63.00   62.00   61.00   60.00
  8    80.00   79.00   78.01   77.00   76.00   75.00   74.00   73.00   72.00   71.00   70.00   69.00   68.00   67.00   66.00
       65.00   64.00   63.00   62.00   61.00   60.00
  9    80.00   79.00   78.00   77.00   76.00   75.00   74.00   73.00   72.00   71.00   70.00   69.00   68.00   67.00   66.00
       65.00   64.00   63.00   62.00   61.00   60.00
 10    80.00   79.00   78.00   77.00   76.00   75.00   74.00   73.00   72.00   71.00   70.00   69.00   68.00   67.00   66.00
       65.00   64.00   63.00   62.00   61.00   60.00
 11    80.00   79.00   78.00   77.00   76.00   75.00   74.00   73.00   72.00   71.00   70.00   69.00   68.00   67.00   66.00
       65.00   64.00   63.00   62.00   61.00   60.00
 12    80.00   79.00   78.00   77.00   76.00   75.00   74.00   73.00   72.00   71.00   70.00   69.00   68.00   67.00   66.00
       65.00   64.00   63.00   62.00   61.00   60.00
 13    80.00   79.00   78.00   77.00   76.00   75.00   74.00   73.00   72.00   71.00   70.00   69.00   68.00   67.00   66.00
       65.00   64.00   63.00   62.00   61.00   60.00
 14    80.00   79.00   78.00   77.00   76.00   75.00   74.00   73.00   72.00   71.00   70.00   69.00   68.00   67.00   66.00
       65.00   64.00   63.00   62.00   61.00   60.00
 15    80.00   79.00   78.00   77.00   76.00   75.00   74.00   73.00   72.00   71.00   70.00   69.00   68.00   67.00   66.00
       65.00   64.00   63.00   62.00   61.00   60.00
             HEAD IN LAYER   8 AT END OF TIME STEP   1 IN STRESS PERIOD    1
 ---------------------------------------------------------------------------

          1       2       3       4       5       6       7       8       9      10      11      12      13      14      15
         16      17      18      19      20      21
...........................................................................................................................
  1    80.00   79.00   78.00   77.00   76.00   75.00   74.00   73.00   72.00   71.00   70.00   69.00   68.00   67.00   66.00
       65.00   64.00   63.00   62.00   61.00   60.00
  2    80.00   79.00   78.00   77.00   76.00   75.00   74.00   73.00   72.00   71.00   70.00   69.00   68.00   67.00   66.00
       65.00   64.00   63.00   62.00   61.00   60.00
  3    80.00   79.00   78.00   77.00   76.00   75.00   74.00   73.00   72.00   71.00   70.00   69.00   68.00   67.00   66.00
       65.00   64.00   63.00   62.00   61.00   60.00
  4    80.00   79.00   78.00   77.00   76.00   75.00   74.00   73.00   72.00   71.00   70.00   69.00   68.00   67.00   66.00
       65.00   64.00   63.00   62.00   61.00   60.00
  5    80.00   79.00   78.00   77.00   76.00   75.00   74.00   73.00   72.00   71.00   70.00   69.00   68.00   67.00   66.00
       65.00   64.00   63.00   62.00   61.00   60.00
  6    80.00   79.00   78.00   77.00   76.00   75.00   74.00   73.00   72.00   71.00   70.00   69.00   68.00   67.00   66.00
       65.00   64.00   63.00   62.00   61.00   60.00
  7    80.00   79.00   78.00   77.00   76.00   75.00   74.00   73.00   72.00   71.00   70.00   69.00   68.00   67.00   66.00
       65.00   64.00   63.00   62.00   61.00   60.00
  8    80.00   79.00   78.00   77.00   76.00   75.00   74.00   73.00   72.00   71.00   70.00   69.00   68.00   67.00   66.00
       65.00   64.00   63.00   62.00   61.00   60.00
  9    80.00   79.00   78.00   77.00   76.00   75.00   74.00   73.00   72.00   71.00   70.00   69.00   68.00   67.00   66.00
       65.00   64.00   63.00   62.00   61.00   60.00
 10    80.00   79.00   78.00   77.00   76.00   75.00   74.00   73.00   72.00   71.00   70.00   69.00   68.00   67.00   66.00
       65.00   64.00   63.00   62.00   61.00   60.00
 11    80.00   79.00   78.00   77.00   76.00   75.00   74.00   73.00   72.00   71.00   70.00   69.00   68.00   67.00   66.00
       65.00   64.00   63.00   62.00   61.00   60.00
 12    80.00   79.00   78.00   77.00   76.00   75.00   74.00   73.00   72.00   71.00   70.00   69.00   68.00   67.00   66.00
       65.00   64.00   63.00   62.00   61.00   60.00
 13    80.00   79.00   78.00   77.00   76.00   75.00   74.00   73.00   72.00   71.00   70.00   69.00   68.00   67.00   66.00
       65.00   64.00   63.00   62.00   61.00   60.00
 14    80.00   79.00   78.00   77.00   76.00   75.00   74.00   73.00   72.00   71.00   70.00   69.00   68.00   67.00   66.00
       65.00   64.00   63.00   62.00   61.00   60.00
 15    80.00   79.00   78.00   77.00   76.00   75.00   74.00   73.00   72.00   71.00   70.00   69.00   68.00   67.00   66.00
       65.00   64.00   63.00   62.00   61.00   60.00
 VOLUMETRIC BUDGET FOR ENTIRE MODEL AT END OF TIME STEP  1 IN STRESS PERIOD   1
 ------------------------------------------------------------------------------

    CUMULATIVE VOLUMES      L**3       RATES FOR THIS TIME STEP      L**3/T
    ------------------                 ------------------------

          IN:                                      IN:
          ---                                      ---
            STORAGE =           0.0000               STORAGE =           0.0000
      CONSTANT HEAD =       29988.7500         CONSTANT HEAD =        1199.5500
              WELLS =          12.5000                 WELLS =           0.5000

           TOTAL IN =       30001.2500              TOTAL IN =        1200.0500

         OUT:                                     OUT:
         ----                                     ----
            STORAGE =           0.0000               STORAGE =           0.0000
      CONSTANT HEAD =       30001.2500         CONSTANT HEAD =        1200.0500
              WELLS =           0.0000                 WELLS =           0.0000

          TOTAL OUT =       30001.2500             TOTAL OUT =        1200.0500

           IN - OUT =           0.0000              IN - OUT =           0.0000

PERCENT DISCREPANCY =           0.00     PERCENT DISCREPANCY =           0.00






         TIME SUMMARY AT END OF TIME STEP   1 IN STRESS PERIOD    1
                   SECONDS     MINUTES      HOURS       DAYS        YEARS
                   -----------------------------------------------------------
  TIME STEP LENGTH 2.16000E+06  36000.      600.00      25.000     6.84463E-02
STRESS PERIOD TIME 2.16000E+06  36000.      600.00      25.000     6.84463E-02
        TOTAL TIME 2.16000E+06  36000.      600.00      25.000     6.84463E-02
