                             MODFLOW 6 PROFESSIONAL
                U.S. GEOLOGICAL SURVEY MODULAR HYDROLOGIC MODEL
                  VERSION 6.5.0.dev0 (preliminary) 07/13/2023
                               ***DEVELOP MODE***

        MODFLOW 6 compiled Oct 30 2023 08:23:02 with GCC version 11.3.0

This software is preliminary or provisional and is subject to 
revision. It is being provided to meet the need for timely best 
science. The software has not received final approval by the U.S. 
Geological Survey (USGS). No warranty, expressed or implied, is made 
by the USGS or the U.S. Government as to the functionality of the 
software and related material nor shall the fact of release 
constitute any such warranty. The software is provided on the 
condition that neither the USGS nor the U.S. Government shall be held 
liable for any damages resulting from the authorized or unauthorized 
use of the software.


As a work of the United States Government, this USGS product is 
in the public domain within the United States. You can copy, 
modify, distribute, and perform the work, even for commercial 
purposes, all without asking permission. Additionally, USGS 
waives copyright and related rights in the work worldwide 
through CC0 1.0 Universal Public Domain Dedication 
(https://creativecommons.org/publicdomain/zero/1.0/).

The following GNU Lesser General Public License (LGPL) libraries
are used in this USGS product:

    SPARSKIT version 2.0
      ilut, luson, and qsplit 
      (https://www-users.cse.umn.edu/~saad/software/SPARSKIT/)

    RCM - Reverse Cuthill McKee Ordering
      (https://people.math.sc.edu/Burkardt/f_src/rcm/rcm.html)

    BLAS - Basic Linear Algebra Subprograms Level 1
      (https://people.math.sc.edu/Burkardt/f_src/blas1_d/blas1_d.html)

    SPARSEKIT - Sparse Matrix Utility Package
      amux, dperm, dvperm, rperm, and cperm
      (https://people.sc.fsu.edu/~jburkardt/f77_src/sparsekit/sparsekit.html)

The following BSD-3 License libraries are used in this USGS product:

    Modern Fortran DAG Library
      Copyright (c) 2018, Jacob Williams
      All rights reserved.
      (https://github.com/jacobwilliams/daglib)

The following 2-clause BSD License library is used in this
USGS product:

    PETSc, the Portable, Extensible Toolkit for Scientific
    Computation Library
      Copyright (c) 1991-2021, UChicago Argonne, LLC
      and the PETSc Development Team All rights reserved.
      (https://petsc.org/release/)

MODFLOW 6 compiler options: -cpp -I src/libmf6core.a.p -I src -I ../src -I
src/libmf6_external.a.p -I
/home/mreno/.clone/external/petsc/arch-linux-c-debug/include -I
/home/mreno/.clone/external/petsc/include -I
/home/mreno/.clone/external/petsc/arch-linux-c-debug/lib -I
/home/mreno/miniconda3/envs/modflow6/include -I -fdiagnostics-color=always
-imultiarch x86_64-linux-gnu -D _FILE_OFFSET_BITS=64 -D __linux__ -D
__WITH_PETSC__ -D __WITH_MPI__ -D __WITH_NETCDF__ -mtune=generic
-march=x86-64 -g -O2 -Wall -Wpedantic -Wcharacter-truncation
-Wno-unused-dummy-argument -Wno-intrinsic-shadow -Wno-maybe-uninitialized
-Wno-uninitialized -std=f2008 -fall-intrinsics -fbacktrace -fcheck=all
-ffpe-trap=overflow,zero,invalid -ffpe-summary=overflow
-ffpe-trap=overflow,zero,invalid -fPIC -J src/libmf6core.a.p
-fpre-include=/usr/include/finclude/math-vector-fortran.h

System command used to initiate simulation:
/home/mreno/.clone/usgs/w/netcdf/2/modflow6/bin/mf6

MODFLOW was compiled using uniform precision.

Real Variables
  KIND: 8
  TINY (smallest non-zero value):    2.225074-308
  HUGE (largest value):    1.797693+308
  PRECISION: 15
  SIZE IN BITS: 64

Integer Variables
  KIND: 4
  HUGE (largest value): 2147483647
  SIZE IN BITS: 32

Long Integer Variables
  KIND: 8
  HUGE (largest value): 9223372036854775807
  SIZE IN BITS: 64

Logical Variables
  KIND: 4
  SIZE IN BITS: 32


 OPENED mfsim.nam
 FILE TYPE:NAM6      UNIT 1001   STATUS:OLD                 
 FORMAT:FORMATTED              ACCESS:SEQUENTIAL          
 ACTION:READ                

 # File generated by Flopy version 3.5.0.dev0 on 10/30/2023 at 09:00:51.

 OPENED gwf_bndname01.nam
 FILE TYPE:GWF6      UNIT 1002   STATUS:OLD                 
 FORMAT:FORMATTED              ACCESS:SEQUENTIAL          
 ACTION:READ                

 # File generated by Flopy version 3.5.0.dev0 on 10/30/2023 at 09:00:51.
Model NetCDF4 Input "gwf_bndname01.nc" opened NF90_NOWRITE, ncid=65536
IDM nc modeltype=GWF6
IDM load netcdf var model=GWF6, ptype=DIS6
IDM nc4_context pkg cname=GWF_BNDNAME01, scname=DIS
IDM load nc model ctype=GWF
IDM load netcdf var model=GWF6, ptype=DIS6, sctype=DIS
Input parameter "NLAY" discovered for package "GWF_BNDNAME01/DIS".
IDM load netcdf var model=GWF6, ptype=DIS6
IDM nc4_context pkg cname=GWF_BNDNAME01, scname=DIS
IDM load nc model ctype=GWF
IDM load netcdf var model=GWF6, ptype=DIS6, sctype=DIS
Input parameter "NROW" discovered for package "GWF_BNDNAME01/DIS".
IDM load netcdf var model=GWF6, ptype=DIS6
IDM nc4_context pkg cname=GWF_BNDNAME01, scname=DIS
IDM load nc model ctype=GWF
IDM load netcdf var model=GWF6, ptype=DIS6, sctype=DIS
Input parameter "NCOL" discovered for package "GWF_BNDNAME01/DIS".
IDM load netcdf var model=GWF6, ptype=DIS6
IDM nc4_context pkg cname=GWF_BNDNAME01, scname=DIS
IDM load nc model ctype=GWF
IDM load netcdf var model=GWF6, ptype=DIS6, sctype=DIS
Input parameter "DELR" discovered for package "GWF_BNDNAME01/DIS".
IDM load netcdf var model=GWF6, ptype=DIS6
IDM nc4_context pkg cname=GWF_BNDNAME01, scname=DIS
IDM load nc model ctype=GWF
IDM load netcdf var model=GWF6, ptype=DIS6, sctype=DIS
Input parameter "DELC" discovered for package "GWF_BNDNAME01/DIS".
IDM load netcdf var model=GWF6, ptype=DIS6
IDM nc4_context pkg cname=GWF_BNDNAME01, scname=DIS
IDM load nc model ctype=GWF
IDM load netcdf var model=GWF6, ptype=DIS6, sctype=DIS
Input parameter "TOP" discovered for package "GWF_BNDNAME01/DIS".
IDM load netcdf var model=GWF6, ptype=DIS6
IDM nc4_context pkg cname=GWF_BNDNAME01, scname=DIS
IDM load nc model ctype=GWF
IDM load netcdf var model=GWF6, ptype=DIS6, sctype=DIS
Input parameter "BOTM" discovered for package "GWF_BNDNAME01/DIS".
IDM load netcdf var model=GWF6, ptype=DIS6
IDM nc4_context pkg cname=GWF_BNDNAME01, scname=DIS
IDM load nc model ctype=GWF
IDM load netcdf var model=GWF6, ptype=DIS6, sctype=DIS
Input parameter "IDOMAIN" discovered for package "GWF_BNDNAME01/DIS".
IDM load netcdf var model=GWF6, ptype=NPF6
IDM nc4_context pkg cname=GWF_BNDNAME01, scname=DIS
IDM nc4_context pkg cname=GWF_BNDNAME01, scname=NPF
IDM load nc model ctype=GWF
IDM load netcdf var model=GWF6, ptype=NPF6, sctype=NPF
Input parameter "SAVE_SPECIFIC_DISCHARGE" discovered for package "GWF_BNDNAME01/NPF".
IDM load netcdf var model=GWF6, ptype=NPF6
IDM nc4_context pkg cname=GWF_BNDNAME01, scname=DIS
IDM nc4_context pkg cname=GWF_BNDNAME01, scname=NPF
IDM load nc model ctype=GWF
IDM load netcdf var model=GWF6, ptype=NPF6, sctype=NPF
Input parameter "ICELLTYPE" discovered for package "GWF_BNDNAME01/NPF".
IDM load netcdf var model=GWF6, ptype=NPF6
IDM nc4_context pkg cname=GWF_BNDNAME01, scname=DIS
IDM nc4_context pkg cname=GWF_BNDNAME01, scname=NPF
IDM load nc model ctype=GWF
IDM load netcdf var model=GWF6, ptype=NPF6, sctype=NPF
Input parameter "K" discovered for package "GWF_BNDNAME01/NPF".
IDM load netcdf var model=GWF6, ptype=NPF6
IDM nc4_context pkg cname=GWF_BNDNAME01, scname=DIS
IDM nc4_context pkg cname=GWF_BNDNAME01, scname=NPF
IDM load nc model ctype=GWF
IDM load netcdf var model=GWF6, ptype=NPF6, sctype=NPF
Input parameter "K33" discovered for package "GWF_BNDNAME01/NPF".
IDM load netcdf var model=GWF6, ptype=CHD6
IDM nc4_context pkg cname=GWF_BNDNAME01, scname=DIS
IDM nc4_context pkg cname=GWF_BNDNAME01, scname=NPF
IDM nc4_context pkg cname=GWF_BNDNAME01, scname=CHD-1
IDM load nc model ctype=GWF
IDM load netcdf var model=GWF6, ptype=CHD6, sctype=CHD
Input parameter "BOUNDNAMES" discovered for package "GWF_BNDNAME01/CHD-1".
IDM load netcdf var model=GWF6, ptype=CHD6
IDM nc4_context pkg cname=GWF_BNDNAME01, scname=DIS
IDM nc4_context pkg cname=GWF_BNDNAME01, scname=NPF
IDM nc4_context pkg cname=GWF_BNDNAME01, scname=CHD-1
IDM load nc model ctype=GWF
IDM load netcdf var model=GWF6, ptype=CHD6, sctype=CHD
Input parameter "PRINT_INPUT" discovered for package "GWF_BNDNAME01/CHD-1".
IDM load netcdf var model=GWF6, ptype=CHD6
IDM nc4_context pkg cname=GWF_BNDNAME01, scname=DIS
IDM nc4_context pkg cname=GWF_BNDNAME01, scname=NPF
IDM nc4_context pkg cname=GWF_BNDNAME01, scname=CHD-1
IDM load nc model ctype=GWF
IDM load netcdf var model=GWF6, ptype=CHD6, sctype=CHD
Input parameter "PRINT_FLOWS" discovered for package "GWF_BNDNAME01/CHD-1".
IDM load netcdf var model=GWF6, ptype=CHD6
IDM nc4_context pkg cname=GWF_BNDNAME01, scname=DIS
IDM nc4_context pkg cname=GWF_BNDNAME01, scname=NPF
IDM nc4_context pkg cname=GWF_BNDNAME01, scname=CHD-1
IDM load nc model ctype=GWF
IDM load netcdf var model=GWF6, ptype=CHD6, sctype=CHD
Input parameter "SAVE_FLOWS" discovered for package "GWF_BNDNAME01/CHD-1".
IDM load netcdf var model=GWF6, ptype=CHD6
IDM nc4_context pkg cname=GWF_BNDNAME01, scname=DIS
IDM nc4_context pkg cname=GWF_BNDNAME01, scname=NPF
IDM nc4_context pkg cname=GWF_BNDNAME01, scname=CHD-1
IDM load nc model ctype=GWF
IDM load netcdf var model=GWF6, ptype=CHD6, sctype=CHD
Input parameter "OBS_FILERECORD" discovered for package "GWF_BNDNAME01/CHD-1".
IDM load netcdf var model=GWF6, ptype=CHD6
IDM nc4_context pkg cname=GWF_BNDNAME01, scname=DIS
IDM nc4_context pkg cname=GWF_BNDNAME01, scname=NPF
IDM nc4_context pkg cname=GWF_BNDNAME01, scname=CHD-1
IDM load nc model ctype=GWF
IDM load netcdf var model=GWF6, ptype=CHD6, sctype=CHD
Input parameter "MAXBOUND" discovered for package "GWF_BNDNAME01/CHD-1".
IDM load netcdf var model=GWF6, ptype=CHD6
IDM nc4_context pkg cname=GWF_BNDNAME01, scname=DIS
IDM nc4_context pkg cname=GWF_BNDNAME01, scname=NPF
IDM nc4_context pkg cname=GWF_BNDNAME01, scname=CHD-1
IDM load nc model ctype=GWF
IDM load netcdf var model=GWF6, ptype=CHD6
IDM nc4_context pkg cname=GWF_BNDNAME01, scname=DIS
IDM nc4_context pkg cname=GWF_BNDNAME01, scname=NPF
IDM nc4_context pkg cname=GWF_BNDNAME01, scname=CHD-1
IDM load nc model ctype=GWF
IDM load netcdf var model=GWF6, ptype=CHD6, sctype=CHD
Input parameter "CELLID" discovered for package "GWF_BNDNAME01/CHD-1".
IDM load netcdf var model=GWF6, ptype=CHD6
IDM nc4_context pkg cname=GWF_BNDNAME01, scname=DIS
IDM nc4_context pkg cname=GWF_BNDNAME01, scname=NPF
IDM nc4_context pkg cname=GWF_BNDNAME01, scname=CHD-1
IDM load nc model ctype=GWF
IDM load netcdf var model=GWF6, ptype=CHD6, sctype=CHD
Input parameter "HEAD" discovered for package "GWF_BNDNAME01/CHD-1".
IDM load netcdf var model=GWF6, ptype=CHD6
IDM nc4_context pkg cname=GWF_BNDNAME01, scname=DIS
IDM nc4_context pkg cname=GWF_BNDNAME01, scname=NPF
IDM nc4_context pkg cname=GWF_BNDNAME01, scname=CHD-1
IDM load nc model ctype=GWF
IDM load netcdf var model=GWF6, ptype=CHD6, sctype=CHD
Input parameter "BOUNDNAME" discovered for package "GWF_BNDNAME01/CHD-1".
IDM input_load pkg=DIS
IDM NF90_MAX_DIMS=1024
IDM NF90_MAX_VAR_DIMS=1024
varname=NLAY, type=INTEGER
varname=NROW, type=INTEGER
varname=NCOL, type=INTEGER
varname=DELR, type=DOUBLE1D
varname=DELC, type=DOUBLE1D
varname=TOP, type=DOUBLE2D
varname=BOTM, type=DOUBLE3D
varname=IDOMAIN, type=INTEGER3D
    ALL SIMULATION MEMORY INFORMATION WILL BE WRITTEN.

 DETAILED INFORMATION ON VARIABLES STORED IN THE MEMORY MANAGER
 -----------------------------------------------------------------------------------------------------------------------------------------------------------------------------
 ORIGIN                                             VARIABLE NAME    DATA TYPE             NUMBER OF ITEMS ASSOCIATED VARIABLE                                                
 -----------------------------------------------------------------------------------------------------------------------------------------------------------------------------
 __INPUT__/SIM/NAM                                  TDIS6            STRING LEN=300                      1 --                                                                 
 __INPUT__/SIM/NAM                                  MTYPE            STRING LEN=300                      1 --                                                                 
 __INPUT__/SIM/NAM                                  MFNAME           STRING LEN=300                      1 --                                                                 
 __INPUT__/SIM/NAM                                  MNAME            STRING LEN=300                      1 --                                                                 
 __INPUT__/SIM/NAM                                  EXGTYPE          STRING LEN=300                      0 --                                                                 
 __INPUT__/SIM/NAM                                  EXGFILE          STRING LEN=300                      0 --                                                                 
 __INPUT__/SIM/NAM                                  EXGMNAMEA        STRING LEN=300                      0 --                                                                 
 __INPUT__/SIM/NAM                                  EXGMNAMEB        STRING LEN=300                      0 --                                                                 
 __INPUT__/SIM/NAM                                  SOLUTIONGROUPNUM INTEGER                             1 --                                                                 
 __INPUT__/SIM/NAM                                  SLNTYPE          STRING LEN=300                      1 --                                                                 
 __INPUT__/SIM/NAM                                  SLNFNAME         STRING LEN=300                      1 --                                                                 
 __INPUT__/SIM/NAM                                  SLNMNAMES        STRING LEN=300                      1 --                                                                 
 __INPUT__/SIM/NAM                                  CONTINUE         INTEGER                             1 --                                                                 
 __INPUT__/SIM/NAM                                  NOCHECK          INTEGER                             1 --                                                                 
 __INPUT__/SIM/NAM                                  PRMEM            STRING LEN=300                      1 --                                                                 
 __INPUT__/SIM/NAM                                  MAXERRORS        INTEGER                             1 --                                                                 
 __INPUT__/SIM/NAM                                  PRINT_INPUT      INTEGER                             1 --                                                                 
 __INPUT__/SIM/NAM                                  MXITER           INTEGER                             1 --                                                                 
 __INPUT__/SIM                                      NUMMODELS        INTEGER                             1 --                                                                 
 __INPUT__/SIM                                      NUMEXCHANGES     INTEGER                             1 --                                                                 
 __INPUT__/GWF_BNDNAME01/NAM                        SAVE_FLOWS       INTEGER                             1 --                                                                 
 __INPUT__/GWF_BNDNAME01/NAM                        FTYPE            STRING LEN=300                      5 --                                                                 
 __INPUT__/GWF_BNDNAME01/NAM                        FNAME            STRING LEN=300                      5 --                                                                 
 __INPUT__/GWF_BNDNAME01/NAM                        PNAME            STRING LEN=300                      5 --                                                                 
 __INPUT__/GWF_BNDNAME01                            PKGTYPES         STRING LEN=7                        0 --                                                                 
 __INPUT__/GWF_BNDNAME01                            PKGNAMES         STRING LEN=16                       0 --                                                                 
 __INPUT__/GWF_BNDNAME01                            MEMPATHS         STRING LEN=50                       0 --                                                                 
 __INPUT__/GWF_BNDNAME01                            INUNITS          INTEGER                             0 --                                                                 
 __INPUT__/GWF_BNDNAME01/DIS                        INPUT_FNAME      STRING LEN=300                      1 --                                                                 
 __INPUT__/GWF_BNDNAME01/NPF                        INPUT_FNAME      STRING LEN=300                      1 --                                                                 
 __INPUT__/GWF_BNDNAME01/CHD-1                      INPUT_FNAME      STRING LEN=300                      1 --                                                                 
 __INPUT__/GWF_BNDNAME01/DIS                        NLAY             INTEGER                             1 --                                                                 
 __INPUT__/GWF_BNDNAME01/DIS                        NROW             INTEGER                             1 --                                                                 
 __INPUT__/GWF_BNDNAME01/DIS                        NCOL             INTEGER                             1 --                                                                 
 __INPUT__/GWF_BNDNAME01                            MODEL_SHAPE      INTEGER                             3 --                                                                 
 __INPUT__/GWF_BNDNAME01                            NCELLDIM         INTEGER                             1 --                                                                 
 __INPUT__/GWF_BNDNAME01/DIS                        DELR             DOUBLE                            100 --                                                                 
 __INPUT__/GWF_BNDNAME01/DIS                        DELC             DOUBLE                              1 --                                                                 
 __INPUT__/GWF_BNDNAME01/DIS                        TOP              DOUBLE                            100 --                                                                 
 __INPUT__/GWF_BNDNAME01/DIS                        BOTM             DOUBLE                            100 --                                                                 
 __INPUT__/GWF_BNDNAME01/DIS                        IDOMAIN          INTEGER                           100 --                                                                 
 -----------------------------------------------------------------------------------------------------------------------------------------------------------------------------



 MEMORY MANAGER TOTAL STORAGE BY DATA TYPE, IN KILOBYTES
 -------------------------------
                    ALLOCATED   
 DATA TYPE           MEMORY     
 -------------------------------
 Character        1.5210000     
 Logical          0.0000000     
 Integer          0.46400000    
 Real             2.4080000     
 -------------------------------
 Total            4.3930000     
 Virtual          0.0000000     
 -------------------------------


IDM input_load pkg=NPF
IDM NF90_MAX_DIMS=1024
IDM NF90_MAX_VAR_DIMS=1024
varname=ISAVSPDIS, type=KEYWORD
varname=ICELLTYPE, type=INTEGER1D
varname=K, type=DOUBLE1D
varname=K33, type=DOUBLE1D
    ALL SIMULATION MEMORY INFORMATION WILL BE WRITTEN.

 DETAILED INFORMATION ON VARIABLES STORED IN THE MEMORY MANAGER
 -----------------------------------------------------------------------------------------------------------------------------------------------------------------------------
 ORIGIN                                             VARIABLE NAME    DATA TYPE             NUMBER OF ITEMS ASSOCIATED VARIABLE                                                
 -----------------------------------------------------------------------------------------------------------------------------------------------------------------------------
 __INPUT__/SIM/NAM                                  TDIS6            STRING LEN=300                      1 --                                                                 
 __INPUT__/SIM/NAM                                  MTYPE            STRING LEN=300                      1 --                                                                 
 __INPUT__/SIM/NAM                                  MFNAME           STRING LEN=300                      1 --                                                                 
 __INPUT__/SIM/NAM                                  MNAME            STRING LEN=300                      1 --                                                                 
 __INPUT__/SIM/NAM                                  EXGTYPE          STRING LEN=300                      0 --                                                                 
 __INPUT__/SIM/NAM                                  EXGFILE          STRING LEN=300                      0 --                                                                 
 __INPUT__/SIM/NAM                                  EXGMNAMEA        STRING LEN=300                      0 --                                                                 
 __INPUT__/SIM/NAM                                  EXGMNAMEB        STRING LEN=300                      0 --                                                                 
 __INPUT__/SIM/NAM                                  SOLUTIONGROUPNUM INTEGER                             1 --                                                                 
 __INPUT__/SIM/NAM                                  SLNTYPE          STRING LEN=300                      1 --                                                                 
 __INPUT__/SIM/NAM                                  SLNFNAME         STRING LEN=300                      1 --                                                                 
 __INPUT__/SIM/NAM                                  SLNMNAMES        STRING LEN=300                      1 --                                                                 
 __INPUT__/SIM/NAM                                  CONTINUE         INTEGER                             1 --                                                                 
 __INPUT__/SIM/NAM                                  NOCHECK          INTEGER                             1 --                                                                 
 __INPUT__/SIM/NAM                                  PRMEM            STRING LEN=300                      1 --                                                                 
 __INPUT__/SIM/NAM                                  MAXERRORS        INTEGER                             1 --                                                                 
 __INPUT__/SIM/NAM                                  PRINT_INPUT      INTEGER                             1 --                                                                 
 __INPUT__/SIM/NAM                                  MXITER           INTEGER                             1 --                                                                 
 __INPUT__/SIM                                      NUMMODELS        INTEGER                             1 --                                                                 
 __INPUT__/SIM                                      NUMEXCHANGES     INTEGER                             1 --                                                                 
 __INPUT__/GWF_BNDNAME01/NAM                        SAVE_FLOWS       INTEGER                             1 --                                                                 
 __INPUT__/GWF_BNDNAME01/NAM                        FTYPE            STRING LEN=300                      5 --                                                                 
 __INPUT__/GWF_BNDNAME01/NAM                        FNAME            STRING LEN=300                      5 --                                                                 
 __INPUT__/GWF_BNDNAME01/NAM                        PNAME            STRING LEN=300                      5 --                                                                 
 __INPUT__/GWF_BNDNAME01                            PKGTYPES         STRING LEN=7                        0 --                                                                 
 __INPUT__/GWF_BNDNAME01                            PKGNAMES         STRING LEN=16                       0 --                                                                 
 __INPUT__/GWF_BNDNAME01                            MEMPATHS         STRING LEN=50                       0 --                                                                 
 __INPUT__/GWF_BNDNAME01                            INUNITS          INTEGER                             0 --                                                                 
 __INPUT__/GWF_BNDNAME01/DIS                        INPUT_FNAME      STRING LEN=300                      1 --                                                                 
 __INPUT__/GWF_BNDNAME01/NPF                        INPUT_FNAME      STRING LEN=300                      1 --                                                                 
 __INPUT__/GWF_BNDNAME01/CHD-1                      INPUT_FNAME      STRING LEN=300                      1 --                                                                 
 __INPUT__/GWF_BNDNAME01/DIS                        NLAY             INTEGER                             1 --                                                                 
 __INPUT__/GWF_BNDNAME01/DIS                        NROW             INTEGER                             1 --                                                                 
 __INPUT__/GWF_BNDNAME01/DIS                        NCOL             INTEGER                             1 --                                                                 
 __INPUT__/GWF_BNDNAME01                            MODEL_SHAPE      INTEGER                             3 --                                                                 
 __INPUT__/GWF_BNDNAME01                            NCELLDIM         INTEGER                             1 --                                                                 
 __INPUT__/GWF_BNDNAME01/DIS                        DELR             DOUBLE                            100 --                                                                 
 __INPUT__/GWF_BNDNAME01/DIS                        DELC             DOUBLE                              1 --                                                                 
 __INPUT__/GWF_BNDNAME01/DIS                        TOP              DOUBLE                            100 --                                                                 
 __INPUT__/GWF_BNDNAME01/DIS                        BOTM             DOUBLE                            100 --                                                                 
 __INPUT__/GWF_BNDNAME01/DIS                        IDOMAIN          INTEGER                           100 --                                                                 
 __INPUT__/GWF_BNDNAME01/NPF                        ISAVSPDIS        INTEGER                             1 --                                                                 
 __INPUT__/GWF_BNDNAME01/NPF                        ICELLTYPE        INTEGER                           100 --                                                                 
 __INPUT__/GWF_BNDNAME01/NPF                        K                DOUBLE                            100 --                                                                 
 __INPUT__/GWF_BNDNAME01/NPF                        K33              DOUBLE                            100 --                                                                 
 -----------------------------------------------------------------------------------------------------------------------------------------------------------------------------



 MEMORY MANAGER TOTAL STORAGE BY DATA TYPE, IN KILOBYTES
 -------------------------------
                    ALLOCATED   
 DATA TYPE           MEMORY     
 -------------------------------
 Character        1.5210000     
 Logical          0.0000000     
 Integer          0.86800000    
 Real             4.0080000     
 -------------------------------
 Total            6.3970000     
 Virtual          0.0000000     
 -------------------------------



 OPENED gwf_bndname01.ic
 FILE TYPE:IC6       UNIT 1003   STATUS:OLD                 
 FORMAT:FORMATTED              ACCESS:SEQUENTIAL          
 ACTION:READ                


 OPENED gwf_bndname01.oc
 FILE TYPE:OC6       UNIT 1004   STATUS:OLD                 
 FORMAT:FORMATTED              ACCESS:SEQUENTIAL          
 ACTION:READ                

IDM input_load pkg=CHD-1
IDM NF90_MAX_DIMS=1024
IDM NF90_MAX_VAR_DIMS=1024
varname=BOUNDNAMES, type=KEYWORD
varname=IPRPAK, type=KEYWORD
varname=IPRFLOW, type=KEYWORD
varname=IPAKCB, type=KEYWORD
varname=OBS_FILERECORD, type=RECORD OBS6 FILEIN OBS6_FILENAME
varname=MAXBOUND, type=INTEGER
    ALL SIMULATION MEMORY INFORMATION WILL BE WRITTEN.

 DETAILED INFORMATION ON VARIABLES STORED IN THE MEMORY MANAGER
 -----------------------------------------------------------------------------------------------------------------------------------------------------------------------------
 ORIGIN                                             VARIABLE NAME    DATA TYPE             NUMBER OF ITEMS ASSOCIATED VARIABLE                                                
 -----------------------------------------------------------------------------------------------------------------------------------------------------------------------------
 __INPUT__/SIM/NAM                                  TDIS6            STRING LEN=300                      1 --                                                                 
 __INPUT__/SIM/NAM                                  MTYPE            STRING LEN=300                      1 --                                                                 
 __INPUT__/SIM/NAM                                  MFNAME           STRING LEN=300                      1 --                                                                 
 __INPUT__/SIM/NAM                                  MNAME            STRING LEN=300                      1 --                                                                 
 __INPUT__/SIM/NAM                                  EXGTYPE          STRING LEN=300                      0 --                                                                 
 __INPUT__/SIM/NAM                                  EXGFILE          STRING LEN=300                      0 --                                                                 
 __INPUT__/SIM/NAM                                  EXGMNAMEA        STRING LEN=300                      0 --                                                                 
 __INPUT__/SIM/NAM                                  EXGMNAMEB        STRING LEN=300                      0 --                                                                 
 __INPUT__/SIM/NAM                                  SOLUTIONGROUPNUM INTEGER                             1 --                                                                 
 __INPUT__/SIM/NAM                                  SLNTYPE          STRING LEN=300                      1 --                                                                 
 __INPUT__/SIM/NAM                                  SLNFNAME         STRING LEN=300                      1 --                                                                 
 __INPUT__/SIM/NAM                                  SLNMNAMES        STRING LEN=300                      1 --                                                                 
 __INPUT__/SIM/NAM                                  CONTINUE         INTEGER                             1 --                                                                 
 __INPUT__/SIM/NAM                                  NOCHECK          INTEGER                             1 --                                                                 
 __INPUT__/SIM/NAM                                  PRMEM            STRING LEN=300                      1 --                                                                 
 __INPUT__/SIM/NAM                                  MAXERRORS        INTEGER                             1 --                                                                 
 __INPUT__/SIM/NAM                                  PRINT_INPUT      INTEGER                             1 --                                                                 
 __INPUT__/SIM/NAM                                  MXITER           INTEGER                             1 --                                                                 
 __INPUT__/SIM                                      NUMMODELS        INTEGER                             1 --                                                                 
 __INPUT__/SIM                                      NUMEXCHANGES     INTEGER                             1 --                                                                 
 __INPUT__/GWF_BNDNAME01/NAM                        SAVE_FLOWS       INTEGER                             1 --                                                                 
 __INPUT__/GWF_BNDNAME01/NAM                        FTYPE            STRING LEN=300                      5 --                                                                 
 __INPUT__/GWF_BNDNAME01/NAM                        FNAME            STRING LEN=300                      5 --                                                                 
 __INPUT__/GWF_BNDNAME01/NAM                        PNAME            STRING LEN=300                      5 --                                                                 
 __INPUT__/GWF_BNDNAME01                            PKGTYPES         STRING LEN=7                        0 --                                                                 
 __INPUT__/GWF_BNDNAME01                            PKGNAMES         STRING LEN=16                       0 --                                                                 
 __INPUT__/GWF_BNDNAME01                            MEMPATHS         STRING LEN=50                       0 --                                                                 
 __INPUT__/GWF_BNDNAME01                            INUNITS          INTEGER                             0 --                                                                 
 __INPUT__/GWF_BNDNAME01/DIS                        INPUT_FNAME      STRING LEN=300                      1 --                                                                 
 __INPUT__/GWF_BNDNAME01/NPF                        INPUT_FNAME      STRING LEN=300                      1 --                                                                 
 __INPUT__/GWF_BNDNAME01/CHD-1                      INPUT_FNAME      STRING LEN=300                      1 --                                                                 
 __INPUT__/GWF_BNDNAME01/DIS                        NLAY             INTEGER                             1 --                                                                 
 __INPUT__/GWF_BNDNAME01/DIS                        NROW             INTEGER                             1 --                                                                 
 __INPUT__/GWF_BNDNAME01/DIS                        NCOL             INTEGER                             1 --                                                                 
 __INPUT__/GWF_BNDNAME01                            MODEL_SHAPE      INTEGER                             3 --                                                                 
 __INPUT__/GWF_BNDNAME01                            NCELLDIM         INTEGER                             1 --                                                                 
 __INPUT__/GWF_BNDNAME01/DIS                        DELR             DOUBLE                            100 --                                                                 
 __INPUT__/GWF_BNDNAME01/DIS                        DELC             DOUBLE                              1 --                                                                 
 __INPUT__/GWF_BNDNAME01/DIS                        TOP              DOUBLE                            100 --                                                                 
 __INPUT__/GWF_BNDNAME01/DIS                        BOTM             DOUBLE                            100 --                                                                 
 __INPUT__/GWF_BNDNAME01/DIS                        IDOMAIN          INTEGER                           100 --                                                                 
 __INPUT__/GWF_BNDNAME01/NPF                        ISAVSPDIS        INTEGER                             1 --                                                                 
 __INPUT__/GWF_BNDNAME01/NPF                        ICELLTYPE        INTEGER                           100 --                                                                 
 __INPUT__/GWF_BNDNAME01/NPF                        K                DOUBLE                            100 --                                                                 
 __INPUT__/GWF_BNDNAME01/NPF                        K33              DOUBLE                            100 --                                                                 
 __INPUT__/GWF_BNDNAME01/CHD-1                      BOUNDNAMES       INTEGER                             1 --                                                                 
 __INPUT__/GWF_BNDNAME01/CHD-1                      IPRPAK           INTEGER                             1 --                                                                 
 __INPUT__/GWF_BNDNAME01/CHD-1                      IPRFLOW          INTEGER                             1 --                                                                 
 __INPUT__/GWF_BNDNAME01/CHD-1                      IPAKCB           INTEGER                             1 --                                                                 
 __INPUT__/GWF_BNDNAME01/CHD-1                      OBS6_FILENAME    STRING LEN=300                      1 --                                                                 
 __INPUT__/GWF_BNDNAME01/CHD-1                      NAUX             INTEGER                             1 --                                                                 
 __INPUT__/GWF_BNDNAME01/CHD-1                      MAXBOUND         INTEGER                             1 --                                                                 
 __INPUT__/GWF_BNDNAME01/CHD-1                      IPER             INTEGER                             1 --                                                                 
 __INPUT__/GWF_BNDNAME01/CHD-1                      IONPER           INTEGER                             1 --                                                                 
 __INPUT__/GWF_BNDNAME01/CHD-1                      NBOUND           INTEGER                             1 --                                                                 
 __INPUT__/GWF_BNDNAME01/CHD-1                      NCPL             INTEGER                             1 --                                                                 
 __INPUT__/GWF_BNDNAME01/CHD-1                      AUXILIARY        STRING LEN=16                       0 --                                                                 
 __INPUT__/GWF_BNDNAME01/CHD-1                      CELLID           INTEGER                             6 --                                                                 
 __INPUT__/GWF_BNDNAME01/CHD-1                      HEAD             DOUBLE                              2 --                                                                 
 __INPUT__/GWF_BNDNAME01/CHD-1                      BOUNDNAME        STRING LEN=40                       2 --                                                                 
 __INPUT__/GWF_BNDNAME01/CHD-1                      AUXVAR           DOUBLE                              0 --                                                                 
 -----------------------------------------------------------------------------------------------------------------------------------------------------------------------------



 MEMORY MANAGER TOTAL STORAGE BY DATA TYPE, IN KILOBYTES
 -------------------------------
                    ALLOCATED   
 DATA TYPE           MEMORY     
 -------------------------------
 Character        1.5240000     
 Logical          0.0000000     
 Integer          0.93200000    
 Real             4.0240000     
 -------------------------------
 Total            6.4800000     
 Virtual          0.0000000     
 -------------------------------



 READING SIMULATION OPTIONS
    MAXIMUM NUMBER OF ERRORS THAT WILL BE STORED IS 1000
 END OF SIMULATION OPTIONS

 READING SIMULATION TIMING

 OPENED bndname01.tdis
 FILE TYPE:TDIS   UNIT 1005   STATUS:OLD                 
 FORMAT:FORMATTED              ACCESS:SEQUENTIAL          
 ACTION:READ                


 TDIS -- TEMPORAL DISCRETIZATION PACKAGE,
 VERSION 1 : 11/13/2014 - INPUT READ FROM UNIT 1005
 # File generated by Flopy version 3.5.0.dev0 on 10/30/2023 at 09:00:51.
 PROCESSING TDIS OPTIONS
    SIMULATION TIME UNIT IS DAYS
 END OF TDIS OPTIONS
 PROCESSING TDIS DIMENSIONS
    1 STRESS PERIOD(S) IN SIMULATION
 END OF TDIS DIMENSIONS
 PROCESSING TDIS PERIODDATA


 STRESS PERIOD     LENGTH       TIME STEPS     MULTIPLIER FOR DELT
 ----------------------------------------------------------------------------
        1         5.000000          1                    1.000
 END OF TDIS PERIODDATA
 END OF SIMULATION TIMING

 READING SIMULATION MODELS
    GWF6 model 1 will be created
 END OF SIMULATION MODELS

 READING SIMULATION EXCHANGES
 END OF SIMULATION EXCHANGES

 READING SOLUTIONGROUP

 Creating solution: SLN_1           

 OPENED bndname01.ims
 FILE TYPE:IMS   UNIT 1007   STATUS:OLD                 
 FORMAT:FORMATTED              ACCESS:SEQUENTIAL          
 ACTION:READ                

 END OF SOLUTIONGROUP

PROCESSING MODEL CONNECTIONS

 IMS -- ITERATIVE MODEL SOLUTION PACKAGE, VERSION 6, 4/28/2017
         INPUT READ FROM UNIT 1007
 # File generated by Flopy version 3.5.0.dev0 on 10/30/2023 at 09:00:51.

 PROCESSING IMS OPTIONS
 END OF IMS OPTIONS

 PROCESSING IMS NONLINEAR
 END OF IMS NONLINEAR DATA
 ***UNDER-RELAXATION WILL NOT BE USED***


 PROCESSING LINEAR DATA
 END OF LINEAR DATA
 ***IMS LINEAR SOLVER WILL BE USED***

 IMSLINEAR -- UNSTRUCTURED LINEAR SOLUTION PACKAGE, VERSION 8, 04/28/2017
 A symmetric matrix will be solved

 OUTER ITERATION CONVERGENCE CRITERION    (DVCLOSE) =    0.100000E-05
 MAXIMUM NUMBER OF OUTER ITERATIONS        (MXITER) = 100
 SOLVER PRINTOUT INDEX                     (IPRIMS) = 1
 NONLINEAR ITERATION METHOD            (NONLINMETH) = 0
 LINEAR SOLUTION METHOD                   (LINMETH) = 1

       SOLUTION BY THE        CONJUGATE-GRADIENT       METHOD
 ------------------------------------------------------------------
 MAXIMUM OF 100 CALLS OF SOLUTION ROUTINE
 MAXIMUM OF 300 INTERNAL ITERATIONS PER CALL TO SOLUTION ROUTINE
 LINEAR ACCELERATION METHOD            = CG        
 MATRIX PRECONDITIONING TYPE           = MOD. INCOMPLETE LU  
 MATRIX SCALING APPROACH               = NO SCALING          
 MATRIX REORDERING APPROACH            = ORIGINAL ORDERING        
 NUMBER OF ORTHOGONALIZATIONS          = 0
 HEAD CHANGE CRITERION FOR CLOSURE     =    0.10000E-05
 RESIDUAL CHANGE CRITERION FOR CLOSURE =    0.10000E-05
 RESIDUAL CONVERGENCE OPTION           = 0
 RESIDUAL CONVERGENCE NORM             = INFINITY NORM   
 RELAXATION FACTOR                     =    0.10000E+01




    Solving:  Stress period:     1    Time step:     1

1
                            STRESS PERIOD NO. 1, LENGTH =   5.000000    
                            -----------------------------------------------
                            NUMBER OF TIME STEPS = 1
                            MULTIPLIER FOR DELT =     1.000
IDM inlist_rp iiper=1
IDM RP LIST kper=1
IDM RP LIST varname=CELLID, type=INTEGER1D
Found INODATA CELLIDsize m=3size n=2
CELLID FIRST SET nbound=2
IDM RP LIST varname=HEAD, type=DOUBLE
IDM RP LIST varname=BOUNDNAME, type=STRING
                            INITIAL TIME STEP SIZE =   5.000000    

 SLN_1 OUTER ITERATION SUMMARY
 ----------------------------------------------------------------------------------------------------------
                                OUTER      INNER                    STEP   MAXIMUM CHANGE MODEL-(CELLID) OR
 OUTER ITERATION STEP       ITERATION  ITERATION  MAXIMUM CHANGE SUCCESS             MODEL-PACKAGE-(NUMBER)
 ----------------------------------------------------------------------------------------------------------
 Model                              1          2     -0.98989899                             1_GWF-(1,1,99)
 Model                              2          1       0.0000000       *                     1_GWF-(1,1,99)
 ----------------------------------------------------------------------------------------------------------


 2 CALLS TO NUMERICAL SOLUTION IN TIME STEP 1 STRESS PERIOD 1
 3 TOTAL ITERATIONS


 Solution SLN_1 summary
 ----------------------------------------------------------------------
 Total formulate time:  0.47999999999999432E-4 seconds
 Total solution time:   0.22000000000001185E-4 seconds


 DETAILED INFORMATION ON VARIABLES STORED IN THE MEMORY MANAGER
 -----------------------------------------------------------------------------------------------------------------------------------------------------------------------------
 ORIGIN                                             VARIABLE NAME    DATA TYPE             NUMBER OF ITEMS ASSOCIATED VARIABLE                                                
 -----------------------------------------------------------------------------------------------------------------------------------------------------------------------------
 __INPUT__/SIM/NAM                                  TDIS6            STRING LEN=300                      1 --                                                                 
 __INPUT__/SIM/NAM                                  MTYPE            STRING LEN=300                      1 --                                                                 
 __INPUT__/SIM/NAM                                  MFNAME           STRING LEN=300                      1 --                                                                 
 __INPUT__/SIM/NAM                                  MNAME            STRING LEN=300                      1 --                                                                 
 __INPUT__/SIM/NAM                                  EXGTYPE          STRING LEN=300                      0 --                                                                 
 __INPUT__/SIM/NAM                                  EXGFILE          STRING LEN=300                      0 --                                                                 
 __INPUT__/SIM/NAM                                  EXGMNAMEA        STRING LEN=300                      0 --                                                                 
 __INPUT__/SIM/NAM                                  EXGMNAMEB        STRING LEN=300                      0 --                                                                 
 __INPUT__/SIM/NAM                                  SOLUTIONGROUPNUM INTEGER                             1 --                                                                 
 __INPUT__/SIM/NAM                                  SLNTYPE          STRING LEN=300                      1 --                                                                 
 __INPUT__/SIM/NAM                                  SLNFNAME         STRING LEN=300                      1 --                                                                 
 __INPUT__/SIM/NAM                                  SLNMNAMES        STRING LEN=300                      1 --                                                                 
 __INPUT__/SIM/NAM                                  CONTINUE         INTEGER                             1 --                                                                 
 __INPUT__/SIM/NAM                                  NOCHECK          INTEGER                             1 --                                                                 
 __INPUT__/SIM/NAM                                  PRMEM            STRING LEN=300                      1 --                                                                 
 __INPUT__/SIM/NAM                                  MAXERRORS        INTEGER                             1 --                                                                 
 __INPUT__/SIM/NAM                                  PRINT_INPUT      INTEGER                             1 --                                                                 
 __INPUT__/SIM/NAM                                  MXITER           INTEGER                             1 --                                                                 
 __INPUT__/SIM                                      NUMMODELS        INTEGER                             1 --                                                                 
 __INPUT__/SIM                                      NUMEXCHANGES     INTEGER                             1 --                                                                 
 __INPUT__/GWF_BNDNAME01/NAM                        SAVE_FLOWS       INTEGER                             1 --                                                                 
 __INPUT__/GWF_BNDNAME01/NAM                        FTYPE            STRING LEN=300                      5 --                                                                 
 __INPUT__/GWF_BNDNAME01/NAM                        FNAME            STRING LEN=300                      5 --                                                                 
 __INPUT__/GWF_BNDNAME01/NAM                        PNAME            STRING LEN=300                      5 --                                                                 
 __INPUT__/GWF_BNDNAME01                            PKGTYPES         STRING LEN=7                        5 --                                                                 
 __INPUT__/GWF_BNDNAME01                            PKGNAMES         STRING LEN=16                       5 --                                                                 
 __INPUT__/GWF_BNDNAME01                            MEMPATHS         STRING LEN=50                       5 --                                                                 
 __INPUT__/GWF_BNDNAME01                            INUNITS          INTEGER                             5 --                                                                 
 __INPUT__/GWF_BNDNAME01/DIS                        INPUT_FNAME      STRING LEN=300                      1 --                                                                 
 __INPUT__/GWF_BNDNAME01/NPF                        INPUT_FNAME      STRING LEN=300                      1 --                                                                 
 __INPUT__/GWF_BNDNAME01/CHD-1                      INPUT_FNAME      STRING LEN=300                      1 --                                                                 
 __INPUT__/GWF_BNDNAME01/DIS                        NLAY             INTEGER                             1 --                                                                 
 __INPUT__/GWF_BNDNAME01/DIS                        NROW             INTEGER                             1 --                                                                 
 __INPUT__/GWF_BNDNAME01/DIS                        NCOL             INTEGER                             1 --                                                                 
 __INPUT__/GWF_BNDNAME01                            MODEL_SHAPE      INTEGER                             3 --                                                                 
 __INPUT__/GWF_BNDNAME01                            NCELLDIM         INTEGER                             1 --                                                                 
 __INPUT__/GWF_BNDNAME01/DIS                        DELR             DOUBLE                            100 --                                                                 
 __INPUT__/GWF_BNDNAME01/DIS                        DELC             DOUBLE                              1 --                                                                 
 __INPUT__/GWF_BNDNAME01/DIS                        TOP              DOUBLE                            100 --                                                                 
 __INPUT__/GWF_BNDNAME01/DIS                        BOTM             DOUBLE                            100 --                                                                 
 __INPUT__/GWF_BNDNAME01/DIS                        IDOMAIN          INTEGER                           100 --                                                                 
 __INPUT__/GWF_BNDNAME01/NPF                        ISAVSPDIS        INTEGER                             1 --                                                                 
 __INPUT__/GWF_BNDNAME01/NPF                        ICELLTYPE        INTEGER                           100 --                                                                 
 __INPUT__/GWF_BNDNAME01/NPF                        K                DOUBLE                            100 --                                                                 
 __INPUT__/GWF_BNDNAME01/NPF                        K33              DOUBLE                            100 --                                                                 
 __INPUT__/GWF_BNDNAME01/CHD-1                      BOUNDNAMES       INTEGER                             1 --                                                                 
 __INPUT__/GWF_BNDNAME01/CHD-1                      IPRPAK           INTEGER                             1 --                                                                 
 __INPUT__/GWF_BNDNAME01/CHD-1                      IPRFLOW          INTEGER                             1 --                                                                 
 __INPUT__/GWF_BNDNAME01/CHD-1                      IPAKCB           INTEGER                             1 --                                                                 
 __INPUT__/GWF_BNDNAME01/CHD-1                      OBS6_FILENAME    STRING LEN=300                      1 --                                                                 
 __INPUT__/GWF_BNDNAME01/CHD-1                      NAUX             INTEGER                             1 --                                                                 
 __INPUT__/GWF_BNDNAME01/CHD-1                      MAXBOUND         INTEGER                             1 --                                                                 
 __INPUT__/GWF_BNDNAME01/CHD-1                      IPER             INTEGER                             1 --                                                                 
 __INPUT__/GWF_BNDNAME01/CHD-1                      IONPER           INTEGER                             1 --                                                                 
 __INPUT__/GWF_BNDNAME01/CHD-1                      NBOUND           INTEGER                             1 --                                                                 
 __INPUT__/GWF_BNDNAME01/CHD-1                      NCPL             INTEGER                             1 --                                                                 
 __INPUT__/GWF_BNDNAME01/CHD-1                      AUXILIARY        STRING LEN=16                       0 --                                                                 
 __INPUT__/GWF_BNDNAME01/CHD-1                      CELLID           INTEGER                             6 --                                                                 
 __INPUT__/GWF_BNDNAME01/CHD-1                      HEAD             DOUBLE                              2 --                                                                 
 __INPUT__/GWF_BNDNAME01/CHD-1                      BOUNDNAME        STRING LEN=40                       2 --                                                                 
 __INPUT__/GWF_BNDNAME01/CHD-1                      AUXVAR           DOUBLE                              0 --                                                                 
 TDIS                                               NPER             INTEGER                             1 --                                                                 
 TDIS                                               ITMUNI           INTEGER                             1 --                                                                 
 TDIS                                               KPER             INTEGER                             1 --                                                                 
 TDIS                                               KSTP             INTEGER                             1 --                                                                 
 TDIS                                               INATS            INTEGER                             1 --                                                                 
 TDIS                                               READNEWDATA      LOGICAL                             1 --                                                                 
 TDIS                                               ENDOFPERIOD      LOGICAL                             1 --                                                                 
 TDIS                                               ENDOFSIMULATION  LOGICAL                             1 --                                                                 
 TDIS                                               DELT             DOUBLE                              1 --                                                                 
 TDIS                                               PERTIM           DOUBLE                              1 --                                                                 
 TDIS                                               TOPERTIM         DOUBLE                              1 --                                                                 
 TDIS                                               TOTIM            DOUBLE                              1 --                                                                 
 TDIS                                               TOTIMC           DOUBLE                              1 --                                                                 
 TDIS                                               DELTSAV          DOUBLE                              1 --                                                                 
 TDIS                                               TOTIMSAV         DOUBLE                              1 --                                                                 
 TDIS                                               PERTIMSAV        DOUBLE                              1 --                                                                 
 TDIS                                               TOTALSIMTIME     DOUBLE                              1 --                                                                 
 TDIS                                               PERLEN           DOUBLE                              1 --                                                                 
 TDIS                                               NSTP             INTEGER                             1 --                                                                 
 TDIS                                               TSMULT           DOUBLE                              1 --                                                                 
 __INPUT__/SIM/NAM                                  MRANKS           INTEGER                             1 --                                                                 
 GWF_BNDNAME01                                      NAME             STRING LEN=16                       1 --                                                                 
 GWF_BNDNAME01                                      MACRONYM         STRING LEN=3                        1 --                                                                 
 GWF_BNDNAME01                                      ID               INTEGER                             1 --                                                                 
 GWF_BNDNAME01                                      IOUT             INTEGER                             1 --                                                                 
 GWF_BNDNAME01                                      INEWTON          INTEGER                             1 --                                                                 
 GWF_BNDNAME01                                      IPRPAK           INTEGER                             1 --                                                                 
 GWF_BNDNAME01                                      IPRFLOW          INTEGER                             1 --                                                                 
 GWF_BNDNAME01                                      IPAKCB           INTEGER                             1 --                                                                 
 GWF_BNDNAME01                                      IDSOLN           INTEGER                             1 --                                                                 
 GWF_BNDNAME01                                      NEQ              INTEGER                             1 --                                                                 
 GWF_BNDNAME01                                      NJA              INTEGER                             1 --                                                                 
 GWF_BNDNAME01                                      ICNVG            INTEGER                             1 --                                                                 
 GWF_BNDNAME01                                      MOFFSET          INTEGER                             1 --                                                                 
 GWF_BNDNAME01                                      INIC             INTEGER                             1 --                                                                 
 GWF_BNDNAME01                                      INOC             INTEGER                             1 --                                                                 
 GWF_BNDNAME01                                      INNPF            INTEGER                             1 --                                                                 
 GWF_BNDNAME01                                      INBUY            INTEGER                             1 --                                                                 
 GWF_BNDNAME01                                      INVSC            INTEGER                             1 --                                                                 
 GWF_BNDNAME01                                      INSTO            INTEGER                             1 --                                                                 
 GWF_BNDNAME01                                      INCSUB           INTEGER                             1 --                                                                 
 GWF_BNDNAME01                                      INMVR            INTEGER                             1 --                                                                 
 GWF_BNDNAME01                                      INHFB            INTEGER                             1 --                                                                 
 GWF_BNDNAME01                                      INGNC            INTEGER                             1 --                                                                 
 GWF_BNDNAME01                                      INOBS            INTEGER                             1 --                                                                 
 GWF_BNDNAME01                                      ISS              INTEGER                             1 --                                                                 
 GWF_BNDNAME01                                      INEWTONUR        INTEGER                             1 --                                                                 
 GWF_BNDNAME01/DIS                                  INUNIT           INTEGER                             1 --                                                                 
 GWF_BNDNAME01/DIS                                  IOUT             INTEGER                             1 --                                                                 
 GWF_BNDNAME01/DIS                                  NODES            INTEGER                             1 --                                                                 
 GWF_BNDNAME01/DIS                                  NODESUSER        INTEGER                             1 --                                                                 
 GWF_BNDNAME01/DIS                                  NDIM             INTEGER                             1 --                                                                 
 GWF_BNDNAME01/DIS                                  ICONDIR          INTEGER                             1 --                                                                 
 GWF_BNDNAME01/DIS                                  NOGRB            INTEGER                             1 --                                                                 
 GWF_BNDNAME01/DIS                                  XORIGIN          DOUBLE                              1 --                                                                 
 GWF_BNDNAME01/DIS                                  YORIGIN          DOUBLE                              1 --                                                                 
 GWF_BNDNAME01/DIS                                  ANGROT           DOUBLE                              1 --                                                                 
 GWF_BNDNAME01/DIS                                  NJA              INTEGER                             1 --                                                                 
 GWF_BNDNAME01/DIS                                  NJAS             INTEGER                             1 --                                                                 
 GWF_BNDNAME01/DIS                                  LENUNI           INTEGER                             1 --                                                                 
 GWF_BNDNAME01/DIS                                  NLAY             INTEGER                             1 --                                                                 
 GWF_BNDNAME01/DIS                                  NROW             INTEGER                             1 --                                                                 
 GWF_BNDNAME01/DIS                                  NCOL             INTEGER                             1 --                                                                 
 GWF_BNDNAME01/NPF                                  INPUT_FNAME      STRING LEN=300                      1 --                                                                 
 GWF_BNDNAME01/NPF                                  PACKAGE_TYPE     STRING LEN=5                        1 --                                                                 
 GWF_BNDNAME01/NPF                                  ID               INTEGER                             1 --                                                                 
 GWF_BNDNAME01/NPF                                  INUNIT           INTEGER                             1 --                                                                 
 GWF_BNDNAME01/NPF                                  IOUT             INTEGER                             1 --                                                                 
 GWF_BNDNAME01/NPF                                  INEWTON          INTEGER                             1 --                                                                 
 GWF_BNDNAME01/NPF                                  IASYM            INTEGER                             1 --                                                                 
 GWF_BNDNAME01/NPF                                  IPRPAK           INTEGER                             1 --                                                                 
 GWF_BNDNAME01/NPF                                  IPRFLOW          INTEGER                             1 --                                                                 
 GWF_BNDNAME01/NPF                                  IPAKCB           INTEGER                             1 --                                                                 
 GWF_BNDNAME01/NPF                                  IONPER           INTEGER                             1 --                                                                 
 GWF_BNDNAME01/NPF                                  LASTONPER        INTEGER                             1 --                                                                 
 GWF_BNDNAME01/NPF                                  INAME            INTEGER                             1 --                                                                 
 GWF_BNDNAME01/NPF                                  IXT3D            INTEGER                             1 --                                                                 
 GWF_BNDNAME01/NPF                                  IXT3DRHS         INTEGER                             1 --                                                                 
 GWF_BNDNAME01/NPF                                  SATOMEGA         DOUBLE                              1 --                                                                 
 GWF_BNDNAME01/NPF                                  HNOFLO           DOUBLE                              1 --                                                                 
 GWF_BNDNAME01/NPF                                  HDRY             DOUBLE                              1 --                                                                 
 GWF_BNDNAME01/NPF                                  ICELLAVG         INTEGER                             1 --                                                                 
 GWF_BNDNAME01/NPF                                  IAVGKEFF         INTEGER                             1 --                                                                 
 GWF_BNDNAME01/NPF                                  IK22             INTEGER                             1 --                                                                 
 GWF_BNDNAME01/NPF                                  IK33             INTEGER                             1 --                                                                 
 GWF_BNDNAME01/NPF                                  IK22OVERK        INTEGER                             1 --                                                                 
 GWF_BNDNAME01/NPF                                  IK33OVERK        INTEGER                             1 --                                                                 
 GWF_BNDNAME01/NPF                                  IPERCHED         INTEGER                             1 --                                                                 
 GWF_BNDNAME01/NPF                                  IVARCV           INTEGER                             1 --                                                                 
 GWF_BNDNAME01/NPF                                  IDEWATCV         INTEGER                             1 --                                                                 
 GWF_BNDNAME01/NPF                                  ITHICKSTRT       INTEGER                             1 --                                                                 
 GWF_BNDNAME01/NPF                                  IUSGNRHC         INTEGER                             1 --                                                                 
 GWF_BNDNAME01/NPF                                  INWTUPW          INTEGER                             1 --                                                                 
 GWF_BNDNAME01/NPF                                  ICALCSPDIS       INTEGER                             1 --                                                                 
 GWF_BNDNAME01/NPF                                  ISAVSPDIS        INTEGER                             1 --                                                                 
 GWF_BNDNAME01/NPF                                  ISAVSAT          INTEGER                             1 --                                                                 
 GWF_BNDNAME01/NPF                                  IREWET           INTEGER                             1 --                                                                 
 GWF_BNDNAME01/NPF                                  WETFCT           DOUBLE                              1 --                                                                 
 GWF_BNDNAME01/NPF                                  IWETIT           INTEGER                             1 --                                                                 
 GWF_BNDNAME01/NPF                                  IHDWET           INTEGER                             1 --                                                                 
 GWF_BNDNAME01/NPF                                  SATMIN           DOUBLE                              1 --                                                                 
 GWF_BNDNAME01/NPF                                  IANGLE1          INTEGER                             1 --                                                                 
 GWF_BNDNAME01/NPF                                  IANGLE2          INTEGER                             1 --                                                                 
 GWF_BNDNAME01/NPF                                  IANGLE3          INTEGER                             1 --                                                                 
 GWF_BNDNAME01/NPF                                  IWETDRY          INTEGER                             1 --                                                                 
 GWF_BNDNAME01/NPF                                  NEDGES           INTEGER                             1 --                                                                 
 GWF_BNDNAME01/NPF                                  LASTEDGE         INTEGER                             1 --                                                                 
 GWF_BNDNAME01/NPF                                  INTVK            INTEGER                             1 --                                                                 
 GWF_BNDNAME01/NPF                                  INVSC            INTEGER                             1 --                                                                 
 GWF_BNDNAME01/NPF                                  KCHANGEPER       INTEGER                             1 --                                                                 
 GWF_BNDNAME01/NPF                                  KCHANGESTP       INTEGER                             1 --                                                                 
 GWF_BNDNAME01/XT3D                                 IXT3D            INTEGER                             1 --                                                                 
 GWF_BNDNAME01/XT3D                                 NBRMAX           INTEGER                             1 --                                                                 
 GWF_BNDNAME01/XT3D                                 INUNIT           INTEGER                             1 --                                                                 
 GWF_BNDNAME01/XT3D                                 IOUT             INTEGER                             1 --                                                                 
 GWF_BNDNAME01/XT3D                                 INEWTON          INTEGER                             1 --                                                                 
 GWF_BNDNAME01/XT3D                                 NUMEXTNBRS       INTEGER                             1 --                                                                 
 GWF_BNDNAME01/XT3D                                 NOZEE            LOGICAL                             1 --                                                                 
 GWF_BNDNAME01/XT3D                                 VCTHRESH         DOUBLE                              1 --                                                                 
 GWF_BNDNAME01/XT3D                                 LAMATSAVED       LOGICAL                             1 --                                                                 
 GWF_BNDNAME01/XT3D                                 LDISPERSION      LOGICAL                             1 --                                                                 
 GWF_BNDNAME01/BUY                                  INPUT_FNAME      STRING LEN=300                      1 --                                                                 
 GWF_BNDNAME01/BUY                                  PACKAGE_TYPE     STRING LEN=5                        1 --                                                                 
 GWF_BNDNAME01/BUY                                  ID               INTEGER                             1 --                                                                 
 GWF_BNDNAME01/BUY                                  INUNIT           INTEGER                             1 --                                                                 
 GWF_BNDNAME01/BUY                                  IOUT             INTEGER                             1 --                                                                 
 GWF_BNDNAME01/BUY                                  INEWTON          INTEGER                             1 --                                                                 
[...]
 GWF_BNDNAME01/NPF                                  IHCEDGE          INTEGER                             0 --                                                                 
 GWF_BNDNAME01/NPF                                  PROPSEDGE        DOUBLE                              0 --                                                                 
 GWF_BNDNAME01/NPF                                  K11INPUT         DOUBLE                              0 --                                                                 
 GWF_BNDNAME01/NPF                                  K22INPUT         DOUBLE                              0 --                                                                 
 GWF_BNDNAME01/NPF                                  K33INPUT         DOUBLE                              0 --                                                                 
 GWF_BNDNAME01/NPF                                  SPDIS            DOUBLE                            300 --                                                                 
 GWF_BNDNAME01/NPF                                  NODEKCHANGE      INTEGER                           100 --                                                                 
 GWF_BNDNAME01                                      XOLD             DOUBLE                            100 --                                                                 
 GWF_BNDNAME01                                      FLOWJA           DOUBLE                            298 --                                                                 
 GWF_BNDNAME01                                      IDXGLO           INTEGER                           298 --                                                                 
 SLN_1                                              X                DOUBLE                            100 --                                                                 
 SLN_1                                              RHS              DOUBLE                            100 --                                                                 
 SLN_1                                              IACTIVE          INTEGER                           100 --                                                                 
 SLN_1                                              XTEMP            DOUBLE                            100 --                                                                 
 SLN_1                                              DXOLD            DOUBLE                            100 --                                                                 
 SLN_1                                              HNCG             DOUBLE                            100 --                                                                 
 SLN_1                                              LRCH             INTEGER                           300 --                                                                 
 SLN_1                                              WSAVE            DOUBLE                              0 --                                                                 
 SLN_1                                              HCHOLD           DOUBLE                              0 --                                                                 
 SLN_1                                              DEOLD            DOUBLE                              0 --                                                                 
 SLN_1                                              CONVMODSTART     INTEGER                             2 --                                                                 
 TMPSLN_1                                           CONVNMOD         INTEGER                             1 --                                                                 
 TMPSLN_1                                           NITERMAX         INTEGER                             1 --                                                                 
 TMPSLN_1                                           ITINNER          INTEGER                             1 --                                                                 
 TMPSLN_1                                           LOCDV            INTEGER                             1 --                                                                 
 TMPSLN_1                                           DVMAX            DOUBLE                              1 --                                                                 
 TMPSLN_1                                           LOCDR            INTEGER                             1 --                                                                 
 TMPSLN_1                                           DRMAX            DOUBLE                              1 --                                                                 
 TMPSLN_1                                           CONVDVMAX        DOUBLE                              1 --                                                                 
 TMPSLN_1                                           CONVLOCDV        INTEGER                             1 --                                                                 
 TMPSLN_1                                           CONVDRMAX        DOUBLE                              1 --                                                                 
 TMPSLN_1                                           CONVLOCDR        INTEGER                             1 --                                                                 
 GWF_BNDNAME01                                      X                DOUBLE                            100 SLN_1/X                                                            
 GWF_BNDNAME01                                      RHS              DOUBLE                            100 SLN_1/RHS                                                          
 GWF_BNDNAME01                                      IBOUND           INTEGER                           100 SLN_1/IBOUND                                                       
 SLN_1                                              NROW             INTEGER                             1 --                                                                 
 SLN_1                                              NCOL             INTEGER                             1 --                                                                 
 SLN_1                                              NJA              INTEGER                             1 --                                                                 
 SLN_1                                              IA               INTEGER                           101 --                                                                 
 SLN_1                                              JA               INTEGER                           298 --                                                                 
 SLN_1                                              AMAT             DOUBLE                            298 --                                                                 
 GWF_BNDNAME01/IC                                   STRT             DOUBLE                            100 --                                                                 
 GWF_BNDNAME01/CHD-1                                NODELIST         INTEGER                             2 --                                                                 
 GWF_BNDNAME01/CHD-1                                NOUPDATEAUXVAR   INTEGER                             0 --                                                                 
 GWF_BNDNAME01/CHD-1                                BOUND            DOUBLE                              2 --                                                                 
 GWF_BNDNAME01/CHD-1                                CONDINPUT        DOUBLE                              0 --                                                                 
 GWF_BNDNAME01/CHD-1                                HCOF             DOUBLE                              2 --                                                                 
 GWF_BNDNAME01/CHD-1                                RHS              DOUBLE                              2 --                                                                 
 GWF_BNDNAME01/CHD-1                                SIMVALS          DOUBLE                              2 --                                                                 
 GWF_BNDNAME01/CHD-1                                SIMTOMVR         DOUBLE                              0 --                                                                 
 GWF_BNDNAME01/CHD-1                                AUXVAR           DOUBLE                              0 --                                                                 
 GWF_BNDNAME01/CHD-1                                BOUNDNAME        STRING LEN=40                       2 --                                                                 
 GWF_BNDNAME01/CHD-1                                BOUNDNAME_CST    STRING LEN=40                       2 --                                                                 
 GWF_BNDNAME01/CHD-1                                CELLID           INTEGER                             6 __INPUT__/GWF_BNDNAME01/CHD-1/CELLID                               
 GWF_BNDNAME01/CHD-1                                BOUNDNAME_IDM    STRING LEN=40                       2 __INPUT__/GWF_BNDNAME01/CHD-1/BOUNDNAME                            
 GWF_BNDNAME01/CHD-1                                AUXVAR_IDM       DOUBLE                              0 __INPUT__/GWF_BNDNAME01/CHD-1/AUXVAR                               
 GWF_BNDNAME01/CHD-1                                RATECHDIN        DOUBLE                              2 --                                                                 
 GWF_BNDNAME01/CHD-1                                RATECHDOUT       DOUBLE                              2 --                                                                 
 GWF_BNDNAME01/CHD-1                                HEAD             DOUBLE                              2 __INPUT__/GWF_BNDNAME01/CHD-1/HEAD                                 
 SLN_1/IMSLINEAR                                    DVCLOSE          DOUBLE                              1 --                                                                 
 SLN_1/IMSLINEAR                                    RCLOSE           DOUBLE                              1 --                                                                 
 SLN_1/IMSLINEAR                                    ICNVGOPT         INTEGER                             1 --                                                                 
 SLN_1/IMSLINEAR                                    ITER1            INTEGER                             1 --                                                                 
 SLN_1/IMSLINEAR                                    ILINMETH         INTEGER                             1 --                                                                 
 SLN_1/IMSLINEAR                                    ISCL             INTEGER                             1 --                                                                 
 SLN_1/IMSLINEAR                                    IORD             INTEGER                             1 --                                                                 
 SLN_1/IMSLINEAR                                    NORTH            INTEGER                             1 --                                                                 
 SLN_1/IMSLINEAR                                    RELAX            DOUBLE                              1 --                                                                 
 SLN_1/IMSLINEAR                                    LEVEL            INTEGER                             1 --                                                                 
 SLN_1/IMSLINEAR                                    DROPTOL          DOUBLE                              1 --                                                                 
 SLN_1/IMSLINEAR                                    IDFPARAM         INTEGER                             1 --                                                                 
 SLN_1/IMSLINEAR                                    NJA              INTEGER                             1 --                                                                 
 SLN_1/IMSLINEAR                                    IOUT             INTEGER                             1 --                                                                 
 SLN_1/IMSLINEAR                                    IPC              INTEGER                             1 --                                                                 
 SLN_1/IMSLINEAR                                    IACPC            INTEGER                             1 --                                                                 
 SLN_1/IMSLINEAR                                    NITERC           INTEGER                             1 --                                                                 
 SLN_1/IMSLINEAR                                    NIABCGS          INTEGER                             1 --                                                                 
 SLN_1/IMSLINEAR                                    NIAPC            INTEGER                             1 --                                                                 
 SLN_1/IMSLINEAR                                    NJAPC            INTEGER                             1 --                                                                 
 SLN_1/IMSLINEAR                                    EPFACT           DOUBLE                              1 --                                                                 
 SLN_1/IMSLINEAR                                    L2NORM0          DOUBLE                              1 --                                                                 
 SLN_1/IMSLINEAR                                    NJLU             INTEGER                             1 --                                                                 
 SLN_1/IMSLINEAR                                    NJW              INTEGER                             1 --                                                                 
 SLN_1/IMSLINEAR                                    NWLU             INTEGER                             1 --                                                                 
 SLN_1/IMSLINEAR                                    DSCALE           DOUBLE                              1 --                                                                 
 SLN_1/IMSLINEAR                                    DSCALE2          DOUBLE                              1 --                                                                 
 SLN_1/IMSLINEAR                                    IAPC             INTEGER                           101 --                                                                 
 SLN_1/IMSLINEAR                                    JAPC             INTEGER                           298 --                                                                 
 SLN_1/IMSLINEAR                                    APC              DOUBLE                            298 --                                                                 
 SLN_1/IMSLINEAR                                    IW               INTEGER                           100 --                                                                 
 SLN_1/IMSLINEAR                                    W                DOUBLE                            100 --                                                                 
 SLN_1/IMSLINEAR                                    JLU              INTEGER                             1 --                                                                 
 SLN_1/IMSLINEAR                                    JW               INTEGER                             1 --                                                                 
 SLN_1/IMSLINEAR                                    WLU              DOUBLE                              1 --                                                                 
 SLN_1/IMSLINEAR                                    LORDER           INTEGER                             1 --                                                                 
 SLN_1/IMSLINEAR                                    IORDER           INTEGER                             1 --                                                                 
 SLN_1/IMSLINEAR                                    IARO             INTEGER                             2 --                                                                 
 SLN_1/IMSLINEAR                                    JARO             INTEGER                             1 --                                                                 
 SLN_1/IMSLINEAR                                    ARO              DOUBLE                              1 --                                                                 
 SLN_1/IMSLINEAR                                    ID               INTEGER                           100 --                                                                 
 SLN_1/IMSLINEAR                                    D                DOUBLE                            100 --                                                                 
 SLN_1/IMSLINEAR                                    P                DOUBLE                            100 --                                                                 
 SLN_1/IMSLINEAR                                    Q                DOUBLE                            100 --                                                                 
 SLN_1/IMSLINEAR                                    Z                DOUBLE                            100 --                                                                 
 SLN_1/IMSLINEAR                                    T                DOUBLE                              1 --                                                                 
 SLN_1/IMSLINEAR                                    V                DOUBLE                              1 --                                                                 
 SLN_1/IMSLINEAR                                    DHAT             DOUBLE                              1 --                                                                 
 SLN_1/IMSLINEAR                                    PHAT             DOUBLE                              1 --                                                                 
 SLN_1/IMSLINEAR                                    QHAT             DOUBLE                              1 --                                                                 
 -----------------------------------------------------------------------------------------------------------------------------------------------------------------------------



 MEMORY MANAGER TOTAL STORAGE BY DATA TYPE, IN KILOBYTES
 -------------------------------
                    ALLOCATED   
 DATA TYPE           MEMORY     
 -------------------------------
 Character        5.6620000     
 Logical          4.00000000E-02
 Integer          15.676000     
 Real             38.576000     
 -------------------------------
 Total            59.954000     
 Virtual          0.0000000     
 -------------------------------



 Run end date and time (yyyy/mm/dd hh:mm:ss): 2023/10/30  9:00:51
 Elapsed run time:  0.014 Seconds
 Normal termination of simulation.
