                             MODFLOW 6 PROFESSIONAL
                U.S. GEOLOGICAL SURVEY MODULAR HYDROLOGIC MODEL
                  VERSION 6.5.0.dev0 (preliminary) 07/13/2023
                               ***DEVELOP MODE***

        MODFLOW 6 compiled Oct 30 2023 08:23:02 with GCC version 11.3.0

This software is preliminary or provisional and is subject to 
revision. It is being provided to meet the need for timely best 
science. The software has not received final approval by the U.S. 
Geological Survey (USGS). No warranty, expressed or implied, is made 
by the USGS or the U.S. Government as to the functionality of the 
software and related material nor shall the fact of release 
constitute any such warranty. The software is provided on the 
condition that neither the USGS nor the U.S. Government shall be held 
liable for any damages resulting from the authorized or unauthorized 
use of the software.


As a work of the United States Government, this USGS product is 
in the public domain within the United States. You can copy, 
modify, distribute, and perform the work, even for commercial 
purposes, all without asking permission. Additionally, USGS 
waives copyright and related rights in the work worldwide 
through CC0 1.0 Universal Public Domain Dedication 
(https://creativecommons.org/publicdomain/zero/1.0/).

The following GNU Lesser General Public License (LGPL) libraries
are used in this USGS product:

    SPARSKIT version 2.0
      ilut, luson, and qsplit 
      (https://www-users.cse.umn.edu/~saad/software/SPARSKIT/)

    RCM - Reverse Cuthill McKee Ordering
      (https://people.math.sc.edu/Burkardt/f_src/rcm/rcm.html)

    BLAS - Basic Linear Algebra Subprograms Level 1
      (https://people.math.sc.edu/Burkardt/f_src/blas1_d/blas1_d.html)

    SPARSEKIT - Sparse Matrix Utility Package
      amux, dperm, dvperm, rperm, and cperm
      (https://people.sc.fsu.edu/~jburkardt/f77_src/sparsekit/sparsekit.html)

The following BSD-3 License libraries are used in this USGS product:

    Modern Fortran DAG Library
      Copyright (c) 2018, Jacob Williams
      All rights reserved.
      (https://github.com/jacobwilliams/daglib)

The following 2-clause BSD License library is used in this
USGS product:

    PETSc, the Portable, Extensible Toolkit for Scientific
    Computation Library
      Copyright (c) 1991-2021, UChicago Argonne, LLC
      and the PETSc Development Team All rights reserved.
      (https://petsc.org/release/)

MODFLOW 6 compiler options: -cpp -I src/libmf6core.a.p -I src -I ../src -I
src/libmf6_external.a.p -I
/home/mreno/.clone/external/petsc/arch-linux-c-debug/include -I
/home/mreno/.clone/external/petsc/include -I
/home/mreno/.clone/external/petsc/arch-linux-c-debug/lib -I
/home/mreno/miniconda3/envs/modflow6/include -I -fdiagnostics-color=always
-imultiarch x86_64-linux-gnu -D _FILE_OFFSET_BITS=64 -D __linux__ -D
__WITH_PETSC__ -D __WITH_MPI__ -D __WITH_NETCDF__ -mtune=generic
-march=x86-64 -g -O2 -Wall -Wpedantic -Wcharacter-truncation
-Wno-unused-dummy-argument -Wno-intrinsic-shadow -Wno-maybe-uninitialized
-Wno-uninitialized -std=f2008 -fall-intrinsics -fbacktrace -fcheck=all
-ffpe-trap=overflow,zero,invalid -ffpe-summary=overflow
-ffpe-trap=overflow,zero,invalid -fPIC -J src/libmf6core.a.p
-fpre-include=/usr/include/finclude/math-vector-fortran.h

System command used to initiate simulation:
/home/mreno/.clone/usgs/w/netcdf/2/modflow6/bin/mf6

MODFLOW was compiled using uniform precision.

Real Variables
  KIND: 8
  TINY (smallest non-zero value):    2.225074-308
  HUGE (largest value):    1.797693+308
  PRECISION: 15
  SIZE IN BITS: 64

Integer Variables
  KIND: 4
  HUGE (largest value): 2147483647
  SIZE IN BITS: 32

Long Integer Variables
  KIND: 8
  HUGE (largest value): 9223372036854775807
  SIZE IN BITS: 64

Logical Variables
  KIND: 4
  SIZE IN BITS: 32


 OPENED mfsim.nam
 FILE TYPE:NAM6      UNIT 1001   STATUS:OLD                 
 FORMAT:FORMATTED              ACCESS:SEQUENTIAL          
 ACTION:READ                

 # File generated by Flopy version 3.5.0.dev0 on 10/30/2023 at 09:03:35.

 OPENED csub_sub03a.nam
 FILE TYPE:GWF6      UNIT 1002   STATUS:OLD                 
 FORMAT:FORMATTED              ACCESS:SEQUENTIAL          
 ACTION:READ                

 # File generated by Flopy version 3.5.0.dev0 on 10/30/2023 at 09:03:35.
Model NetCDF4 Input "csub_sub03a.nc" opened NF90_NOWRITE, ncid=65536
IDM nc modeltype=GWF6
IDM load netcdf var model=GWF6, ptype=DIS6
IDM nc4_context pkg cname=CSUB_SUB03A, scname=DIS
IDM load nc model ctype=GWF
IDM load netcdf var model=GWF6, ptype=DIS6, sctype=DIS
Input parameter "NLAY" discovered for package "CSUB_SUB03A/DIS".
IDM load netcdf var model=GWF6, ptype=DIS6
IDM nc4_context pkg cname=CSUB_SUB03A, scname=DIS
IDM load nc model ctype=GWF
IDM load netcdf var model=GWF6, ptype=DIS6, sctype=DIS
Input parameter "NROW" discovered for package "CSUB_SUB03A/DIS".
IDM load netcdf var model=GWF6, ptype=DIS6
IDM nc4_context pkg cname=CSUB_SUB03A, scname=DIS
IDM load nc model ctype=GWF
IDM load netcdf var model=GWF6, ptype=DIS6, sctype=DIS
Input parameter "NCOL" discovered for package "CSUB_SUB03A/DIS".
IDM load netcdf var model=GWF6, ptype=DIS6
IDM nc4_context pkg cname=CSUB_SUB03A, scname=DIS
IDM load nc model ctype=GWF
IDM load netcdf var model=GWF6, ptype=DIS6, sctype=DIS
Input parameter "DELR" discovered for package "CSUB_SUB03A/DIS".
IDM load netcdf var model=GWF6, ptype=DIS6
IDM nc4_context pkg cname=CSUB_SUB03A, scname=DIS
IDM load nc model ctype=GWF
IDM load netcdf var model=GWF6, ptype=DIS6, sctype=DIS
Input parameter "DELC" discovered for package "CSUB_SUB03A/DIS".
IDM load netcdf var model=GWF6, ptype=DIS6
IDM nc4_context pkg cname=CSUB_SUB03A, scname=DIS
IDM load nc model ctype=GWF
IDM load netcdf var model=GWF6, ptype=DIS6, sctype=DIS
Input parameter "TOP" discovered for package "CSUB_SUB03A/DIS".
IDM load netcdf var model=GWF6, ptype=DIS6
IDM nc4_context pkg cname=CSUB_SUB03A, scname=DIS
IDM load nc model ctype=GWF
IDM load netcdf var model=GWF6, ptype=DIS6, sctype=DIS
Input parameter "BOTM" discovered for package "CSUB_SUB03A/DIS".
IDM load netcdf var model=GWF6, ptype=NPF6
IDM nc4_context pkg cname=CSUB_SUB03A, scname=DIS
IDM nc4_context pkg cname=CSUB_SUB03A, scname=NPF
IDM load nc model ctype=GWF
IDM load netcdf var model=GWF6, ptype=NPF6, sctype=NPF
Input parameter "SAVE_FLOWS" discovered for package "CSUB_SUB03A/NPF".
IDM load netcdf var model=GWF6, ptype=NPF6
IDM nc4_context pkg cname=CSUB_SUB03A, scname=DIS
IDM nc4_context pkg cname=CSUB_SUB03A, scname=NPF
IDM load nc model ctype=GWF
IDM load netcdf var model=GWF6, ptype=NPF6, sctype=NPF
Input parameter "ICELLTYPE" discovered for package "CSUB_SUB03A/NPF".
IDM load netcdf var model=GWF6, ptype=NPF6
IDM nc4_context pkg cname=CSUB_SUB03A, scname=DIS
IDM nc4_context pkg cname=CSUB_SUB03A, scname=NPF
IDM load nc model ctype=GWF
IDM load netcdf var model=GWF6, ptype=NPF6, sctype=NPF
Input parameter "K" discovered for package "CSUB_SUB03A/NPF".
IDM load netcdf var model=GWF6, ptype=NPF6
IDM nc4_context pkg cname=CSUB_SUB03A, scname=DIS
IDM nc4_context pkg cname=CSUB_SUB03A, scname=NPF
IDM load nc model ctype=GWF
IDM load netcdf var model=GWF6, ptype=NPF6, sctype=NPF
Input parameter "K33" discovered for package "CSUB_SUB03A/NPF".
IDM load netcdf var model=GWF6, ptype=RCHA6
IDM nc4_context pkg cname=CSUB_SUB03A, scname=DIS
IDM nc4_context pkg cname=CSUB_SUB03A, scname=NPF
IDM nc4_context pkg cname=CSUB_SUB03A, scname=WEL_0
IDM nc4_context pkg cname=CSUB_SUB03A, scname=RCHA_0
IDM load nc model ctype=GWF
IDM load netcdf var model=GWF6, ptype=RCHA6, sctype=RCHA
Input parameter "READASARRAYS" discovered for package "CSUB_SUB03A/RCHA_0".
IDM load netcdf var model=GWF6, ptype=RCHA6
IDM nc4_context pkg cname=CSUB_SUB03A, scname=DIS
IDM nc4_context pkg cname=CSUB_SUB03A, scname=NPF
IDM nc4_context pkg cname=CSUB_SUB03A, scname=WEL_0
IDM nc4_context pkg cname=CSUB_SUB03A, scname=RCHA_0
IDM load nc model ctype=GWF
IDM load netcdf var model=GWF6, ptype=RCHA6
IDM nc4_context pkg cname=CSUB_SUB03A, scname=DIS
IDM nc4_context pkg cname=CSUB_SUB03A, scname=NPF
IDM nc4_context pkg cname=CSUB_SUB03A, scname=WEL_0
IDM nc4_context pkg cname=CSUB_SUB03A, scname=RCHA_0
IDM load nc model ctype=GWF
IDM load netcdf var model=GWF6, ptype=RCHA6, sctype=RCHA
IDM checking griddata parameter=RECHARGE
Input parameter "RECHARGE" discovered for package "CSUB_SUB03A/RCHA_0".
IDM load netcdf var model=GWF6, ptype=WEL6
IDM nc4_context pkg cname=CSUB_SUB03A, scname=DIS
IDM nc4_context pkg cname=CSUB_SUB03A, scname=NPF
IDM nc4_context pkg cname=CSUB_SUB03A, scname=WEL_0
IDM load nc model ctype=GWF
IDM load netcdf var model=GWF6, ptype=WEL6, sctype=WEL
Input parameter "PRINT_INPUT" discovered for package "CSUB_SUB03A/WEL_0".
IDM load netcdf var model=GWF6, ptype=WEL6
IDM nc4_context pkg cname=CSUB_SUB03A, scname=DIS
IDM nc4_context pkg cname=CSUB_SUB03A, scname=NPF
IDM nc4_context pkg cname=CSUB_SUB03A, scname=WEL_0
IDM load nc model ctype=GWF
IDM load netcdf var model=GWF6, ptype=WEL6, sctype=WEL
Input parameter "PRINT_FLOWS" discovered for package "CSUB_SUB03A/WEL_0".
IDM load netcdf var model=GWF6, ptype=WEL6
IDM nc4_context pkg cname=CSUB_SUB03A, scname=DIS
IDM nc4_context pkg cname=CSUB_SUB03A, scname=NPF
IDM nc4_context pkg cname=CSUB_SUB03A, scname=WEL_0
IDM load nc model ctype=GWF
IDM load netcdf var model=GWF6, ptype=WEL6, sctype=WEL
Input parameter "SAVE_FLOWS" discovered for package "CSUB_SUB03A/WEL_0".
IDM load netcdf var model=GWF6, ptype=WEL6
IDM nc4_context pkg cname=CSUB_SUB03A, scname=DIS
IDM nc4_context pkg cname=CSUB_SUB03A, scname=NPF
IDM nc4_context pkg cname=CSUB_SUB03A, scname=WEL_0
IDM load nc model ctype=GWF
IDM load netcdf var model=GWF6, ptype=WEL6, sctype=WEL
Input parameter "MAXBOUND" discovered for package "CSUB_SUB03A/WEL_0".
IDM load netcdf var model=GWF6, ptype=WEL6
IDM nc4_context pkg cname=CSUB_SUB03A, scname=DIS
IDM nc4_context pkg cname=CSUB_SUB03A, scname=NPF
IDM nc4_context pkg cname=CSUB_SUB03A, scname=WEL_0
IDM load nc model ctype=GWF
IDM load netcdf var model=GWF6, ptype=WEL6
IDM nc4_context pkg cname=CSUB_SUB03A, scname=DIS
IDM nc4_context pkg cname=CSUB_SUB03A, scname=NPF
IDM nc4_context pkg cname=CSUB_SUB03A, scname=WEL_0
IDM load nc model ctype=GWF
IDM load netcdf var model=GWF6, ptype=WEL6, sctype=WEL
Input parameter "CELLID" discovered for package "CSUB_SUB03A/WEL_0".
IDM load netcdf var model=GWF6, ptype=WEL6
IDM nc4_context pkg cname=CSUB_SUB03A, scname=DIS
IDM nc4_context pkg cname=CSUB_SUB03A, scname=NPF
IDM nc4_context pkg cname=CSUB_SUB03A, scname=WEL_0
IDM load nc model ctype=GWF
IDM load netcdf var model=GWF6, ptype=WEL6, sctype=WEL
Input parameter "Q" discovered for package "CSUB_SUB03A/WEL_0".
IDM load netcdf var model=GWF6, ptype=CHD6
IDM nc4_context pkg cname=CSUB_SUB03A, scname=DIS
IDM nc4_context pkg cname=CSUB_SUB03A, scname=NPF
IDM nc4_context pkg cname=CSUB_SUB03A, scname=WEL_0
IDM nc4_context pkg cname=CSUB_SUB03A, scname=RCHA_0
IDM nc4_context pkg cname=CSUB_SUB03A, scname=CHD_0
IDM load nc model ctype=GWF
IDM load netcdf var model=GWF6, ptype=CHD6, sctype=CHD
Input parameter "SAVE_FLOWS" discovered for package "CSUB_SUB03A/CHD_0".
IDM load netcdf var model=GWF6, ptype=CHD6
IDM nc4_context pkg cname=CSUB_SUB03A, scname=DIS
IDM nc4_context pkg cname=CSUB_SUB03A, scname=NPF
IDM nc4_context pkg cname=CSUB_SUB03A, scname=WEL_0
IDM nc4_context pkg cname=CSUB_SUB03A, scname=RCHA_0
IDM nc4_context pkg cname=CSUB_SUB03A, scname=CHD_0
IDM load nc model ctype=GWF
IDM load netcdf var model=GWF6, ptype=CHD6, sctype=CHD
Input parameter "MAXBOUND" discovered for package "CSUB_SUB03A/CHD_0".
IDM load netcdf var model=GWF6, ptype=CHD6
IDM nc4_context pkg cname=CSUB_SUB03A, scname=DIS
IDM nc4_context pkg cname=CSUB_SUB03A, scname=NPF
IDM nc4_context pkg cname=CSUB_SUB03A, scname=WEL_0
IDM nc4_context pkg cname=CSUB_SUB03A, scname=RCHA_0
IDM nc4_context pkg cname=CSUB_SUB03A, scname=CHD_0
IDM load nc model ctype=GWF
IDM load netcdf var model=GWF6, ptype=CHD6
IDM nc4_context pkg cname=CSUB_SUB03A, scname=DIS
IDM nc4_context pkg cname=CSUB_SUB03A, scname=NPF
IDM nc4_context pkg cname=CSUB_SUB03A, scname=WEL_0
IDM nc4_context pkg cname=CSUB_SUB03A, scname=RCHA_0
IDM nc4_context pkg cname=CSUB_SUB03A, scname=CHD_0
IDM load nc model ctype=GWF
IDM load netcdf var model=GWF6, ptype=CHD6, sctype=CHD
Input parameter "CELLID" discovered for package "CSUB_SUB03A/CHD_0".
IDM load netcdf var model=GWF6, ptype=CHD6
IDM nc4_context pkg cname=CSUB_SUB03A, scname=DIS
IDM nc4_context pkg cname=CSUB_SUB03A, scname=NPF
IDM nc4_context pkg cname=CSUB_SUB03A, scname=WEL_0
IDM nc4_context pkg cname=CSUB_SUB03A, scname=RCHA_0
IDM nc4_context pkg cname=CSUB_SUB03A, scname=CHD_0
IDM load nc model ctype=GWF
IDM load netcdf var model=GWF6, ptype=CHD6, sctype=CHD
Input parameter "HEAD" discovered for package "CSUB_SUB03A/CHD_0".
IDM input_load pkg=DIS
IDM NF90_MAX_DIMS=1024
IDM NF90_MAX_VAR_DIMS=1024
varname=NLAY, type=INTEGER
varname=NROW, type=INTEGER
varname=NCOL, type=INTEGER
varname=DELR, type=DOUBLE1D
varname=DELC, type=DOUBLE1D
varname=TOP, type=DOUBLE2D
varname=BOTM, type=DOUBLE3D
    ALL SIMULATION MEMORY INFORMATION WILL BE WRITTEN.

 DETAILED INFORMATION ON VARIABLES STORED IN THE MEMORY MANAGER
 -----------------------------------------------------------------------------------------------------------------------------------------------------------------------------
 ORIGIN                                             VARIABLE NAME    DATA TYPE             NUMBER OF ITEMS ASSOCIATED VARIABLE                                                
 -----------------------------------------------------------------------------------------------------------------------------------------------------------------------------
 __INPUT__/SIM/NAM                                  TDIS6            STRING LEN=300                      1 --                                                                 
 __INPUT__/SIM/NAM                                  MTYPE            STRING LEN=300                      1 --                                                                 
 __INPUT__/SIM/NAM                                  MFNAME           STRING LEN=300                      1 --                                                                 
 __INPUT__/SIM/NAM                                  MNAME            STRING LEN=300                      1 --                                                                 
 __INPUT__/SIM/NAM                                  EXGTYPE          STRING LEN=300                      0 --                                                                 
 __INPUT__/SIM/NAM                                  EXGFILE          STRING LEN=300                      0 --                                                                 
 __INPUT__/SIM/NAM                                  EXGMNAMEA        STRING LEN=300                      0 --                                                                 
 __INPUT__/SIM/NAM                                  EXGMNAMEB        STRING LEN=300                      0 --                                                                 
 __INPUT__/SIM/NAM                                  SOLUTIONGROUPNUM INTEGER                             1 --                                                                 
 __INPUT__/SIM/NAM                                  SLNTYPE          STRING LEN=300                      1 --                                                                 
 __INPUT__/SIM/NAM                                  SLNFNAME         STRING LEN=300                      1 --                                                                 
 __INPUT__/SIM/NAM                                  SLNMNAMES        STRING LEN=300                      1 --                                                                 
 __INPUT__/SIM/NAM                                  CONTINUE         INTEGER                             1 --                                                                 
 __INPUT__/SIM/NAM                                  NOCHECK          INTEGER                             1 --                                                                 
 __INPUT__/SIM/NAM                                  PRMEM            STRING LEN=300                      1 --                                                                 
 __INPUT__/SIM/NAM                                  MAXERRORS        INTEGER                             1 --                                                                 
 __INPUT__/SIM/NAM                                  PRINT_INPUT      INTEGER                             1 --                                                                 
 __INPUT__/SIM/NAM                                  MXITER           INTEGER                             1 --                                                                 
 __INPUT__/SIM                                      NUMMODELS        INTEGER                             1 --                                                                 
 __INPUT__/SIM                                      NUMEXCHANGES     INTEGER                             1 --                                                                 
 __INPUT__/CSUB_SUB03A/NAM                          FTYPE            STRING LEN=300                      9 --                                                                 
 __INPUT__/CSUB_SUB03A/NAM                          FNAME            STRING LEN=300                      9 --                                                                 
 __INPUT__/CSUB_SUB03A/NAM                          PNAME            STRING LEN=300                      9 --                                                                 
 __INPUT__/CSUB_SUB03A                              PKGTYPES         STRING LEN=7                        0 --                                                                 
 __INPUT__/CSUB_SUB03A                              PKGNAMES         STRING LEN=16                       0 --                                                                 
 __INPUT__/CSUB_SUB03A                              MEMPATHS         STRING LEN=50                       0 --                                                                 
 __INPUT__/CSUB_SUB03A                              INUNITS          INTEGER                             0 --                                                                 
 __INPUT__/CSUB_SUB03A/DIS                          INPUT_FNAME      STRING LEN=300                      1 --                                                                 
 __INPUT__/CSUB_SUB03A/NPF                          INPUT_FNAME      STRING LEN=300                      1 --                                                                 
 __INPUT__/CSUB_SUB03A/RCHA_0                       INPUT_FNAME      STRING LEN=300                      1 --                                                                 
 __INPUT__/CSUB_SUB03A/WEL_0                        INPUT_FNAME      STRING LEN=300                      1 --                                                                 
 __INPUT__/CSUB_SUB03A/CHD_0                        INPUT_FNAME      STRING LEN=300                      1 --                                                                 
 __INPUT__/CSUB_SUB03A/DIS                          NLAY             INTEGER                             1 --                                                                 
 __INPUT__/CSUB_SUB03A/DIS                          NROW             INTEGER                             1 --                                                                 
 __INPUT__/CSUB_SUB03A/DIS                          NCOL             INTEGER                             1 --                                                                 
 __INPUT__/CSUB_SUB03A                              MODEL_SHAPE      INTEGER                             3 --                                                                 
 __INPUT__/CSUB_SUB03A                              NCELLDIM         INTEGER                             1 --                                                                 
 __INPUT__/CSUB_SUB03A/DIS                          DELR             DOUBLE                             10 --                                                                 
 __INPUT__/CSUB_SUB03A/DIS                          DELC             DOUBLE                             10 --                                                                 
 __INPUT__/CSUB_SUB03A/DIS                          TOP              DOUBLE                            100 --                                                                 
 __INPUT__/CSUB_SUB03A/DIS                          BOTM             DOUBLE                            300 --                                                                 
 -----------------------------------------------------------------------------------------------------------------------------------------------------------------------------



 MEMORY MANAGER TOTAL STORAGE BY DATA TYPE, IN KILOBYTES
 -------------------------------
                    ALLOCATED   
 DATA TYPE           MEMORY     
 -------------------------------
 Character        2.1330000     
 Logical          0.0000000     
 Integer          6.00000000E-02
 Real             3.3600000     
 -------------------------------
 Total            5.5530000     
 Virtual          0.0000000     
 -------------------------------


IDM input_load pkg=NPF
IDM NF90_MAX_DIMS=1024
IDM NF90_MAX_VAR_DIMS=1024
varname=IPAKCB, type=KEYWORD
varname=ICELLTYPE, type=INTEGER1D
varname=K, type=DOUBLE1D
varname=K33, type=DOUBLE1D
    ALL SIMULATION MEMORY INFORMATION WILL BE WRITTEN.

 DETAILED INFORMATION ON VARIABLES STORED IN THE MEMORY MANAGER
 -----------------------------------------------------------------------------------------------------------------------------------------------------------------------------
 ORIGIN                                             VARIABLE NAME    DATA TYPE             NUMBER OF ITEMS ASSOCIATED VARIABLE                                                
 -----------------------------------------------------------------------------------------------------------------------------------------------------------------------------
 __INPUT__/SIM/NAM                                  TDIS6            STRING LEN=300                      1 --                                                                 
 __INPUT__/SIM/NAM                                  MTYPE            STRING LEN=300                      1 --                                                                 
 __INPUT__/SIM/NAM                                  MFNAME           STRING LEN=300                      1 --                                                                 
 __INPUT__/SIM/NAM                                  MNAME            STRING LEN=300                      1 --                                                                 
 __INPUT__/SIM/NAM                                  EXGTYPE          STRING LEN=300                      0 --                                                                 
 __INPUT__/SIM/NAM                                  EXGFILE          STRING LEN=300                      0 --                                                                 
 __INPUT__/SIM/NAM                                  EXGMNAMEA        STRING LEN=300                      0 --                                                                 
 __INPUT__/SIM/NAM                                  EXGMNAMEB        STRING LEN=300                      0 --                                                                 
 __INPUT__/SIM/NAM                                  SOLUTIONGROUPNUM INTEGER                             1 --                                                                 
 __INPUT__/SIM/NAM                                  SLNTYPE          STRING LEN=300                      1 --                                                                 
 __INPUT__/SIM/NAM                                  SLNFNAME         STRING LEN=300                      1 --                                                                 
 __INPUT__/SIM/NAM                                  SLNMNAMES        STRING LEN=300                      1 --                                                                 
 __INPUT__/SIM/NAM                                  CONTINUE         INTEGER                             1 --                                                                 
 __INPUT__/SIM/NAM                                  NOCHECK          INTEGER                             1 --                                                                 
 __INPUT__/SIM/NAM                                  PRMEM            STRING LEN=300                      1 --                                                                 
 __INPUT__/SIM/NAM                                  MAXERRORS        INTEGER                             1 --                                                                 
 __INPUT__/SIM/NAM                                  PRINT_INPUT      INTEGER                             1 --                                                                 
 __INPUT__/SIM/NAM                                  MXITER           INTEGER                             1 --                                                                 
 __INPUT__/SIM                                      NUMMODELS        INTEGER                             1 --                                                                 
 __INPUT__/SIM                                      NUMEXCHANGES     INTEGER                             1 --                                                                 
 __INPUT__/CSUB_SUB03A/NAM                          FTYPE            STRING LEN=300                      9 --                                                                 
 __INPUT__/CSUB_SUB03A/NAM                          FNAME            STRING LEN=300                      9 --                                                                 
 __INPUT__/CSUB_SUB03A/NAM                          PNAME            STRING LEN=300                      9 --                                                                 
 __INPUT__/CSUB_SUB03A                              PKGTYPES         STRING LEN=7                        0 --                                                                 
 __INPUT__/CSUB_SUB03A                              PKGNAMES         STRING LEN=16                       0 --                                                                 
 __INPUT__/CSUB_SUB03A                              MEMPATHS         STRING LEN=50                       0 --                                                                 
 __INPUT__/CSUB_SUB03A                              INUNITS          INTEGER                             0 --                                                                 
 __INPUT__/CSUB_SUB03A/DIS                          INPUT_FNAME      STRING LEN=300                      1 --                                                                 
 __INPUT__/CSUB_SUB03A/NPF                          INPUT_FNAME      STRING LEN=300                      1 --                                                                 
 __INPUT__/CSUB_SUB03A/RCHA_0                       INPUT_FNAME      STRING LEN=300                      1 --                                                                 
 __INPUT__/CSUB_SUB03A/WEL_0                        INPUT_FNAME      STRING LEN=300                      1 --                                                                 
 __INPUT__/CSUB_SUB03A/CHD_0                        INPUT_FNAME      STRING LEN=300                      1 --                                                                 
 __INPUT__/CSUB_SUB03A/DIS                          NLAY             INTEGER                             1 --                                                                 
 __INPUT__/CSUB_SUB03A/DIS                          NROW             INTEGER                             1 --                                                                 
 __INPUT__/CSUB_SUB03A/DIS                          NCOL             INTEGER                             1 --                                                                 
 __INPUT__/CSUB_SUB03A                              MODEL_SHAPE      INTEGER                             3 --                                                                 
 __INPUT__/CSUB_SUB03A                              NCELLDIM         INTEGER                             1 --                                                                 
 __INPUT__/CSUB_SUB03A/DIS                          DELR             DOUBLE                             10 --                                                                 
 __INPUT__/CSUB_SUB03A/DIS                          DELC             DOUBLE                             10 --                                                                 
 __INPUT__/CSUB_SUB03A/DIS                          TOP              DOUBLE                            100 --                                                                 
 __INPUT__/CSUB_SUB03A/DIS                          BOTM             DOUBLE                            300 --                                                                 
 __INPUT__/CSUB_SUB03A/NPF                          IPAKCB           INTEGER                             1 --                                                                 
 __INPUT__/CSUB_SUB03A/NPF                          ICELLTYPE        INTEGER                           300 --                                                                 
 __INPUT__/CSUB_SUB03A/NPF                          K                DOUBLE                            300 --                                                                 
 __INPUT__/CSUB_SUB03A/NPF                          K33              DOUBLE                            300 --                                                                 
 -----------------------------------------------------------------------------------------------------------------------------------------------------------------------------



 MEMORY MANAGER TOTAL STORAGE BY DATA TYPE, IN KILOBYTES
 -------------------------------
                    ALLOCATED   
 DATA TYPE           MEMORY     
 -------------------------------
 Character        2.1330000     
 Logical          0.0000000     
 Integer          1.2640000     
 Real             8.1600000     
 -------------------------------
 Total            11.557000     
 Virtual          0.0000000     
 -------------------------------



 OPENED csub_sub03a.sto
 FILE TYPE:STO6      UNIT 1003   STATUS:OLD                 
 FORMAT:FORMATTED              ACCESS:SEQUENTIAL          
 ACTION:READ                


 OPENED csub_sub03a.ic
 FILE TYPE:IC6       UNIT 1004   STATUS:OLD                 
 FORMAT:FORMATTED              ACCESS:SEQUENTIAL          
 ACTION:READ                


 OPENED csub_sub03a.oc
 FILE TYPE:OC6       UNIT 1005   STATUS:OLD                 
 FORMAT:FORMATTED              ACCESS:SEQUENTIAL          
 ACTION:READ                

IDM input_load pkg=WEL_0
IDM NF90_MAX_DIMS=1024
IDM NF90_MAX_VAR_DIMS=1024
varname=IPRPAK, type=KEYWORD
varname=IPRFLOW, type=KEYWORD
varname=IPAKCB, type=KEYWORD
varname=MAXBOUND, type=INTEGER
    ALL SIMULATION MEMORY INFORMATION WILL BE WRITTEN.

 DETAILED INFORMATION ON VARIABLES STORED IN THE MEMORY MANAGER
 -----------------------------------------------------------------------------------------------------------------------------------------------------------------------------
 ORIGIN                                             VARIABLE NAME    DATA TYPE             NUMBER OF ITEMS ASSOCIATED VARIABLE                                                
 -----------------------------------------------------------------------------------------------------------------------------------------------------------------------------
 __INPUT__/SIM/NAM                                  TDIS6            STRING LEN=300                      1 --                                                                 
 __INPUT__/SIM/NAM                                  MTYPE            STRING LEN=300                      1 --                                                                 
 __INPUT__/SIM/NAM                                  MFNAME           STRING LEN=300                      1 --                                                                 
 __INPUT__/SIM/NAM                                  MNAME            STRING LEN=300                      1 --                                                                 
 __INPUT__/SIM/NAM                                  EXGTYPE          STRING LEN=300                      0 --                                                                 
 __INPUT__/SIM/NAM                                  EXGFILE          STRING LEN=300                      0 --                                                                 
 __INPUT__/SIM/NAM                                  EXGMNAMEA        STRING LEN=300                      0 --                                                                 
 __INPUT__/SIM/NAM                                  EXGMNAMEB        STRING LEN=300                      0 --                                                                 
 __INPUT__/SIM/NAM                                  SOLUTIONGROUPNUM INTEGER                             1 --                                                                 
 __INPUT__/SIM/NAM                                  SLNTYPE          STRING LEN=300                      1 --                                                                 
 __INPUT__/SIM/NAM                                  SLNFNAME         STRING LEN=300                      1 --                                                                 
 __INPUT__/SIM/NAM                                  SLNMNAMES        STRING LEN=300                      1 --                                                                 
 __INPUT__/SIM/NAM                                  CONTINUE         INTEGER                             1 --                                                                 
 __INPUT__/SIM/NAM                                  NOCHECK          INTEGER                             1 --                                                                 
 __INPUT__/SIM/NAM                                  PRMEM            STRING LEN=300                      1 --                                                                 
 __INPUT__/SIM/NAM                                  MAXERRORS        INTEGER                             1 --                                                                 
 __INPUT__/SIM/NAM                                  PRINT_INPUT      INTEGER                             1 --                                                                 
 __INPUT__/SIM/NAM                                  MXITER           INTEGER                             1 --                                                                 
 __INPUT__/SIM                                      NUMMODELS        INTEGER                             1 --                                                                 
 __INPUT__/SIM                                      NUMEXCHANGES     INTEGER                             1 --                                                                 
 __INPUT__/CSUB_SUB03A/NAM                          FTYPE            STRING LEN=300                      9 --                                                                 
 __INPUT__/CSUB_SUB03A/NAM                          FNAME            STRING LEN=300                      9 --                                                                 
 __INPUT__/CSUB_SUB03A/NAM                          PNAME            STRING LEN=300                      9 --                                                                 
 __INPUT__/CSUB_SUB03A                              PKGTYPES         STRING LEN=7                        0 --                                                                 
 __INPUT__/CSUB_SUB03A                              PKGNAMES         STRING LEN=16                       0 --                                                                 
 __INPUT__/CSUB_SUB03A                              MEMPATHS         STRING LEN=50                       0 --                                                                 
 __INPUT__/CSUB_SUB03A                              INUNITS          INTEGER                             0 --                                                                 
 __INPUT__/CSUB_SUB03A/DIS                          INPUT_FNAME      STRING LEN=300                      1 --                                                                 
 __INPUT__/CSUB_SUB03A/NPF                          INPUT_FNAME      STRING LEN=300                      1 --                                                                 
 __INPUT__/CSUB_SUB03A/RCHA_0                       INPUT_FNAME      STRING LEN=300                      1 --                                                                 
 __INPUT__/CSUB_SUB03A/WEL_0                        INPUT_FNAME      STRING LEN=300                      1 --                                                                 
 __INPUT__/CSUB_SUB03A/CHD_0                        INPUT_FNAME      STRING LEN=300                      1 --                                                                 
 __INPUT__/CSUB_SUB03A/DIS                          NLAY             INTEGER                             1 --                                                                 
 __INPUT__/CSUB_SUB03A/DIS                          NROW             INTEGER                             1 --                                                                 
 __INPUT__/CSUB_SUB03A/DIS                          NCOL             INTEGER                             1 --                                                                 
 __INPUT__/CSUB_SUB03A                              MODEL_SHAPE      INTEGER                             3 --                                                                 
 __INPUT__/CSUB_SUB03A                              NCELLDIM         INTEGER                             1 --                                                                 
 __INPUT__/CSUB_SUB03A/DIS                          DELR             DOUBLE                             10 --                                                                 
 __INPUT__/CSUB_SUB03A/DIS                          DELC             DOUBLE                             10 --                                                                 
 __INPUT__/CSUB_SUB03A/DIS                          TOP              DOUBLE                            100 --                                                                 
 __INPUT__/CSUB_SUB03A/DIS                          BOTM             DOUBLE                            300 --                                                                 
 __INPUT__/CSUB_SUB03A/NPF                          IPAKCB           INTEGER                             1 --                                                                 
 __INPUT__/CSUB_SUB03A/NPF                          ICELLTYPE        INTEGER                           300 --                                                                 
 __INPUT__/CSUB_SUB03A/NPF                          K                DOUBLE                            300 --                                                                 
 __INPUT__/CSUB_SUB03A/NPF                          K33              DOUBLE                            300 --                                                                 
 __INPUT__/CSUB_SUB03A/WEL_0                        IPRPAK           INTEGER                             1 --                                                                 
 __INPUT__/CSUB_SUB03A/WEL_0                        IPRFLOW          INTEGER                             1 --                                                                 
 __INPUT__/CSUB_SUB03A/WEL_0                        IPAKCB           INTEGER                             1 --                                                                 
 __INPUT__/CSUB_SUB03A/WEL_0                        NAUX             INTEGER                             1 --                                                                 
 __INPUT__/CSUB_SUB03A/WEL_0                        MAXBOUND         INTEGER                             1 --                                                                 
 __INPUT__/CSUB_SUB03A/WEL_0                        IPER             INTEGER                             1 --                                                                 
 __INPUT__/CSUB_SUB03A/WEL_0                        IONPER           INTEGER                             1 --                                                                 
 __INPUT__/CSUB_SUB03A/WEL_0                        NBOUND           INTEGER                             1 --                                                                 
 __INPUT__/CSUB_SUB03A/WEL_0                        NCPL             INTEGER                             1 --                                                                 
 __INPUT__/CSUB_SUB03A/WEL_0                        AUXILIARY        STRING LEN=16                       0 --                                                                 
 __INPUT__/CSUB_SUB03A/WEL_0                        CELLID           INTEGER                            12 --                                                                 
 __INPUT__/CSUB_SUB03A/WEL_0                        Q                DOUBLE                              4 --                                                                 
 __INPUT__/CSUB_SUB03A/WEL_0                        BOUNDNAME        STRING LEN=40                       0 --                                                                 
 __INPUT__/CSUB_SUB03A/WEL_0                        AUXVAR           DOUBLE                              0 --                                                                 
 -----------------------------------------------------------------------------------------------------------------------------------------------------------------------------



 MEMORY MANAGER TOTAL STORAGE BY DATA TYPE, IN KILOBYTES
 -------------------------------
                    ALLOCATED   
 DATA TYPE           MEMORY     
 -------------------------------
 Character        2.1330000     
 Logical          0.0000000     
 Integer          1.3480000     
 Real             8.1920000     
 -------------------------------
 Total            11.673000     
 Virtual          0.0000000     
 -------------------------------


IDM input_load pkg=RCHA_0
IDM NF90_MAX_DIMS=1024
IDM NF90_MAX_VAR_DIMS=1024
varname=READASARRAYS, type=KEYWORD
    ALL SIMULATION MEMORY INFORMATION WILL BE WRITTEN.

 DETAILED INFORMATION ON VARIABLES STORED IN THE MEMORY MANAGER
 -----------------------------------------------------------------------------------------------------------------------------------------------------------------------------
 ORIGIN                                             VARIABLE NAME    DATA TYPE             NUMBER OF ITEMS ASSOCIATED VARIABLE                                                
 -----------------------------------------------------------------------------------------------------------------------------------------------------------------------------
 __INPUT__/SIM/NAM                                  TDIS6            STRING LEN=300                      1 --                                                                 
 __INPUT__/SIM/NAM                                  MTYPE            STRING LEN=300                      1 --                                                                 
 __INPUT__/SIM/NAM                                  MFNAME           STRING LEN=300                      1 --                                                                 
 __INPUT__/SIM/NAM                                  MNAME            STRING LEN=300                      1 --                                                                 
 __INPUT__/SIM/NAM                                  EXGTYPE          STRING LEN=300                      0 --                                                                 
 __INPUT__/SIM/NAM                                  EXGFILE          STRING LEN=300                      0 --                                                                 
 __INPUT__/SIM/NAM                                  EXGMNAMEA        STRING LEN=300                      0 --                                                                 
 __INPUT__/SIM/NAM                                  EXGMNAMEB        STRING LEN=300                      0 --                                                                 
 __INPUT__/SIM/NAM                                  SOLUTIONGROUPNUM INTEGER                             1 --                                                                 
 __INPUT__/SIM/NAM                                  SLNTYPE          STRING LEN=300                      1 --                                                                 
 __INPUT__/SIM/NAM                                  SLNFNAME         STRING LEN=300                      1 --                                                                 
 __INPUT__/SIM/NAM                                  SLNMNAMES        STRING LEN=300                      1 --                                                                 
 __INPUT__/SIM/NAM                                  CONTINUE         INTEGER                             1 --                                                                 
 __INPUT__/SIM/NAM                                  NOCHECK          INTEGER                             1 --                                                                 
 __INPUT__/SIM/NAM                                  PRMEM            STRING LEN=300                      1 --                                                                 
 __INPUT__/SIM/NAM                                  MAXERRORS        INTEGER                             1 --                                                                 
 __INPUT__/SIM/NAM                                  PRINT_INPUT      INTEGER                             1 --                                                                 
 __INPUT__/SIM/NAM                                  MXITER           INTEGER                             1 --                                                                 
 __INPUT__/SIM                                      NUMMODELS        INTEGER                             1 --                                                                 
 __INPUT__/SIM                                      NUMEXCHANGES     INTEGER                             1 --                                                                 
 __INPUT__/CSUB_SUB03A/NAM                          FTYPE            STRING LEN=300                      9 --                                                                 
 __INPUT__/CSUB_SUB03A/NAM                          FNAME            STRING LEN=300                      9 --                                                                 
 __INPUT__/CSUB_SUB03A/NAM                          PNAME            STRING LEN=300                      9 --                                                                 
 __INPUT__/CSUB_SUB03A                              PKGTYPES         STRING LEN=7                        0 --                                                                 
 __INPUT__/CSUB_SUB03A                              PKGNAMES         STRING LEN=16                       0 --                                                                 
 __INPUT__/CSUB_SUB03A                              MEMPATHS         STRING LEN=50                       0 --                                                                 
 __INPUT__/CSUB_SUB03A                              INUNITS          INTEGER                             0 --                                                                 
 __INPUT__/CSUB_SUB03A/DIS                          INPUT_FNAME      STRING LEN=300                      1 --                                                                 
 __INPUT__/CSUB_SUB03A/NPF                          INPUT_FNAME      STRING LEN=300                      1 --                                                                 
 __INPUT__/CSUB_SUB03A/RCHA_0                       INPUT_FNAME      STRING LEN=300                      1 --                                                                 
 __INPUT__/CSUB_SUB03A/WEL_0                        INPUT_FNAME      STRING LEN=300                      1 --                                                                 
 __INPUT__/CSUB_SUB03A/CHD_0                        INPUT_FNAME      STRING LEN=300                      1 --                                                                 
 __INPUT__/CSUB_SUB03A/DIS                          NLAY             INTEGER                             1 --                                                                 
 __INPUT__/CSUB_SUB03A/DIS                          NROW             INTEGER                             1 --                                                                 
 __INPUT__/CSUB_SUB03A/DIS                          NCOL             INTEGER                             1 --                                                                 
 __INPUT__/CSUB_SUB03A                              MODEL_SHAPE      INTEGER                             3 --                                                                 
 __INPUT__/CSUB_SUB03A                              NCELLDIM         INTEGER                             1 --                                                                 
 __INPUT__/CSUB_SUB03A/DIS                          DELR             DOUBLE                             10 --                                                                 
 __INPUT__/CSUB_SUB03A/DIS                          DELC             DOUBLE                             10 --                                                                 
 __INPUT__/CSUB_SUB03A/DIS                          TOP              DOUBLE                            100 --                                                                 
 __INPUT__/CSUB_SUB03A/DIS                          BOTM             DOUBLE                            300 --                                                                 
 __INPUT__/CSUB_SUB03A/NPF                          IPAKCB           INTEGER                             1 --                                                                 
 __INPUT__/CSUB_SUB03A/NPF                          ICELLTYPE        INTEGER                           300 --                                                                 
 __INPUT__/CSUB_SUB03A/NPF                          K                DOUBLE                            300 --                                                                 
 __INPUT__/CSUB_SUB03A/NPF                          K33              DOUBLE                            300 --                                                                 
 __INPUT__/CSUB_SUB03A/WEL_0                        IPRPAK           INTEGER                             1 --                                                                 
 __INPUT__/CSUB_SUB03A/WEL_0                        IPRFLOW          INTEGER                             1 --                                                                 
 __INPUT__/CSUB_SUB03A/WEL_0                        IPAKCB           INTEGER                             1 --                                                                 
 __INPUT__/CSUB_SUB03A/WEL_0                        NAUX             INTEGER                             1 --                                                                 
 __INPUT__/CSUB_SUB03A/WEL_0                        MAXBOUND         INTEGER                             1 --                                                                 
 __INPUT__/CSUB_SUB03A/WEL_0                        IPER             INTEGER                             1 --                                                                 
 __INPUT__/CSUB_SUB03A/WEL_0                        IONPER           INTEGER                             1 --                                                                 
 __INPUT__/CSUB_SUB03A/WEL_0                        NBOUND           INTEGER                             1 --                                                                 
 __INPUT__/CSUB_SUB03A/WEL_0                        NCPL             INTEGER                             1 --                                                                 
 __INPUT__/CSUB_SUB03A/WEL_0                        AUXILIARY        STRING LEN=16                       0 --                                                                 
 __INPUT__/CSUB_SUB03A/WEL_0                        CELLID           INTEGER                            12 --                                                                 
 __INPUT__/CSUB_SUB03A/WEL_0                        Q                DOUBLE                              4 --                                                                 
 __INPUT__/CSUB_SUB03A/WEL_0                        BOUNDNAME        STRING LEN=40                       0 --                                                                 
 __INPUT__/CSUB_SUB03A/WEL_0                        AUXVAR           DOUBLE                              0 --                                                                 
 __INPUT__/CSUB_SUB03A/RCHA_0                       READASARRAYS     INTEGER                             1 --                                                                 
 __INPUT__/CSUB_SUB03A/RCHA_0                       NAUX             INTEGER                             1 --                                                                 
 __INPUT__/CSUB_SUB03A/RCHA_0                       IPER             INTEGER                             1 --                                                                 
 __INPUT__/CSUB_SUB03A/RCHA_0                       IONPER           INTEGER                             1 --                                                                 
 __INPUT__/CSUB_SUB03A/RCHA_0                       NBOUND           INTEGER                             1 --                                                                 
 __INPUT__/CSUB_SUB03A/RCHA_0                       NCPL             INTEGER                             1 --                                                                 
 __INPUT__/CSUB_SUB03A/RCHA_0                       AUXILIARY        STRING LEN=16                       0 --                                                                 
 __INPUT__/CSUB_SUB03A/RCHA_0                       CELLID           INTEGER                             0 --                                                                 
 __INPUT__/CSUB_SUB03A/RCHA_0                       IRCH             INTEGER                           100 --                                                                 
 __INPUT__/CSUB_SUB03A/RCHA_0                       RECHARGE         DOUBLE                            100 --                                                                 
 __INPUT__/CSUB_SUB03A/RCHA_0                       BOUNDNAME        STRING LEN=40                       0 --                                                                 
 __INPUT__/CSUB_SUB03A/RCHA_0                       AUXVAR           DOUBLE                              0 --                                                                 
 __INPUT__/CSUB_SUB03A/RCHA_0                       INIRCH           INTEGER                             1 --                                                                 
 __INPUT__/CSUB_SUB03A/RCHA_0                       INRECHARGE       INTEGER                             1 --                                                                 
 -----------------------------------------------------------------------------------------------------------------------------------------------------------------------------



 MEMORY MANAGER TOTAL STORAGE BY DATA TYPE, IN KILOBYTES
 -------------------------------
                    ALLOCATED   
 DATA TYPE           MEMORY     
 -------------------------------
 Character        2.1330000     
 Logical          0.0000000     
 Integer          1.7800000     
 Real             8.9920000     
 -------------------------------
 Total            12.905000     
 Virtual          0.0000000     
 -------------------------------


IDM input_load pkg=CHD_0
IDM NF90_MAX_DIMS=1024
IDM NF90_MAX_VAR_DIMS=1024
varname=IPAKCB, type=KEYWORD
varname=MAXBOUND, type=INTEGER
    ALL SIMULATION MEMORY INFORMATION WILL BE WRITTEN.

 DETAILED INFORMATION ON VARIABLES STORED IN THE MEMORY MANAGER
 -----------------------------------------------------------------------------------------------------------------------------------------------------------------------------
 ORIGIN                                             VARIABLE NAME    DATA TYPE             NUMBER OF ITEMS ASSOCIATED VARIABLE                                                
 -----------------------------------------------------------------------------------------------------------------------------------------------------------------------------
 __INPUT__/SIM/NAM                                  TDIS6            STRING LEN=300                      1 --                                                                 
 __INPUT__/SIM/NAM                                  MTYPE            STRING LEN=300                      1 --                                                                 
 __INPUT__/SIM/NAM                                  MFNAME           STRING LEN=300                      1 --                                                                 
 __INPUT__/SIM/NAM                                  MNAME            STRING LEN=300                      1 --                                                                 
 __INPUT__/SIM/NAM                                  EXGTYPE          STRING LEN=300                      0 --                                                                 
 __INPUT__/SIM/NAM                                  EXGFILE          STRING LEN=300                      0 --                                                                 
 __INPUT__/SIM/NAM                                  EXGMNAMEA        STRING LEN=300                      0 --                                                                 
 __INPUT__/SIM/NAM                                  EXGMNAMEB        STRING LEN=300                      0 --                                                                 
 __INPUT__/SIM/NAM                                  SOLUTIONGROUPNUM INTEGER                             1 --                                                                 
 __INPUT__/SIM/NAM                                  SLNTYPE          STRING LEN=300                      1 --                                                                 
 __INPUT__/SIM/NAM                                  SLNFNAME         STRING LEN=300                      1 --                                                                 
 __INPUT__/SIM/NAM                                  SLNMNAMES        STRING LEN=300                      1 --                                                                 
 __INPUT__/SIM/NAM                                  CONTINUE         INTEGER                             1 --                                                                 
 __INPUT__/SIM/NAM                                  NOCHECK          INTEGER                             1 --                                                                 
 __INPUT__/SIM/NAM                                  PRMEM            STRING LEN=300                      1 --                                                                 
 __INPUT__/SIM/NAM                                  MAXERRORS        INTEGER                             1 --                                                                 
 __INPUT__/SIM/NAM                                  PRINT_INPUT      INTEGER                             1 --                                                                 
 __INPUT__/SIM/NAM                                  MXITER           INTEGER                             1 --                                                                 
 __INPUT__/SIM                                      NUMMODELS        INTEGER                             1 --                                                                 
 __INPUT__/SIM                                      NUMEXCHANGES     INTEGER                             1 --                                                                 
 __INPUT__/CSUB_SUB03A/NAM                          FTYPE            STRING LEN=300                      9 --                                                                 
 __INPUT__/CSUB_SUB03A/NAM                          FNAME            STRING LEN=300                      9 --                                                                 
 __INPUT__/CSUB_SUB03A/NAM                          PNAME            STRING LEN=300                      9 --                                                                 
 __INPUT__/CSUB_SUB03A                              PKGTYPES         STRING LEN=7                        0 --                                                                 
 __INPUT__/CSUB_SUB03A                              PKGNAMES         STRING LEN=16                       0 --                                                                 
 __INPUT__/CSUB_SUB03A                              MEMPATHS         STRING LEN=50                       0 --                                                                 
 __INPUT__/CSUB_SUB03A                              INUNITS          INTEGER                             0 --                                                                 
 __INPUT__/CSUB_SUB03A/DIS                          INPUT_FNAME      STRING LEN=300                      1 --                                                                 
 __INPUT__/CSUB_SUB03A/NPF                          INPUT_FNAME      STRING LEN=300                      1 --                                                                 
 __INPUT__/CSUB_SUB03A/RCHA_0                       INPUT_FNAME      STRING LEN=300                      1 --                                                                 
 __INPUT__/CSUB_SUB03A/WEL_0                        INPUT_FNAME      STRING LEN=300                      1 --                                                                 
 __INPUT__/CSUB_SUB03A/CHD_0                        INPUT_FNAME      STRING LEN=300                      1 --                                                                 
 __INPUT__/CSUB_SUB03A/DIS                          NLAY             INTEGER                             1 --                                                                 
 __INPUT__/CSUB_SUB03A/DIS                          NROW             INTEGER                             1 --                                                                 
 __INPUT__/CSUB_SUB03A/DIS                          NCOL             INTEGER                             1 --                                                                 
 __INPUT__/CSUB_SUB03A                              MODEL_SHAPE      INTEGER                             3 --                                                                 
 __INPUT__/CSUB_SUB03A                              NCELLDIM         INTEGER                             1 --                                                                 
 __INPUT__/CSUB_SUB03A/DIS                          DELR             DOUBLE                             10 --                                                                 
 __INPUT__/CSUB_SUB03A/DIS                          DELC             DOUBLE                             10 --                                                                 
 __INPUT__/CSUB_SUB03A/DIS                          TOP              DOUBLE                            100 --                                                                 
 __INPUT__/CSUB_SUB03A/DIS                          BOTM             DOUBLE                            300 --                                                                 
 __INPUT__/CSUB_SUB03A/NPF                          IPAKCB           INTEGER                             1 --                                                                 
 __INPUT__/CSUB_SUB03A/NPF                          ICELLTYPE        INTEGER                           300 --                                                                 
 __INPUT__/CSUB_SUB03A/NPF                          K                DOUBLE                            300 --                                                                 
 __INPUT__/CSUB_SUB03A/NPF                          K33              DOUBLE                            300 --                                                                 
 __INPUT__/CSUB_SUB03A/WEL_0                        IPRPAK           INTEGER                             1 --                                                                 
 __INPUT__/CSUB_SUB03A/WEL_0                        IPRFLOW          INTEGER                             1 --                                                                 
 __INPUT__/CSUB_SUB03A/WEL_0                        IPAKCB           INTEGER                             1 --                                                                 
 __INPUT__/CSUB_SUB03A/WEL_0                        NAUX             INTEGER                             1 --                                                                 
 __INPUT__/CSUB_SUB03A/WEL_0                        MAXBOUND         INTEGER                             1 --                                                                 
 __INPUT__/CSUB_SUB03A/WEL_0                        IPER             INTEGER                             1 --                                                                 
 __INPUT__/CSUB_SUB03A/WEL_0                        IONPER           INTEGER                             1 --                                                                 
 __INPUT__/CSUB_SUB03A/WEL_0                        NBOUND           INTEGER                             1 --                                                                 
 __INPUT__/CSUB_SUB03A/WEL_0                        NCPL             INTEGER                             1 --                                                                 
 __INPUT__/CSUB_SUB03A/WEL_0                        AUXILIARY        STRING LEN=16                       0 --                                                                 
 __INPUT__/CSUB_SUB03A/WEL_0                        CELLID           INTEGER                            12 --                                                                 
 __INPUT__/CSUB_SUB03A/WEL_0                        Q                DOUBLE                              4 --                                                                 
 __INPUT__/CSUB_SUB03A/WEL_0                        BOUNDNAME        STRING LEN=40                       0 --                                                                 
 __INPUT__/CSUB_SUB03A/WEL_0                        AUXVAR           DOUBLE                              0 --                                                                 
 __INPUT__/CSUB_SUB03A/RCHA_0                       READASARRAYS     INTEGER                             1 --                                                                 
 __INPUT__/CSUB_SUB03A/RCHA_0                       NAUX             INTEGER                             1 --                                                                 
 __INPUT__/CSUB_SUB03A/RCHA_0                       IPER             INTEGER                             1 --                                                                 
 __INPUT__/CSUB_SUB03A/RCHA_0                       IONPER           INTEGER                             1 --                                                                 
 __INPUT__/CSUB_SUB03A/RCHA_0                       NBOUND           INTEGER                             1 --                                                                 
 __INPUT__/CSUB_SUB03A/RCHA_0                       NCPL             INTEGER                             1 --                                                                 
 __INPUT__/CSUB_SUB03A/RCHA_0                       AUXILIARY        STRING LEN=16                       0 --                                                                 
 __INPUT__/CSUB_SUB03A/RCHA_0                       CELLID           INTEGER                             0 --                                                                 
 __INPUT__/CSUB_SUB03A/RCHA_0                       IRCH             INTEGER                           100 --                                                                 
 __INPUT__/CSUB_SUB03A/RCHA_0                       RECHARGE         DOUBLE                            100 --                                                                 
 __INPUT__/CSUB_SUB03A/RCHA_0                       BOUNDNAME        STRING LEN=40                       0 --                                                                 
 __INPUT__/CSUB_SUB03A/RCHA_0                       AUXVAR           DOUBLE                              0 --                                                                 
 __INPUT__/CSUB_SUB03A/RCHA_0                       INIRCH           INTEGER                             1 --                                                                 
 __INPUT__/CSUB_SUB03A/RCHA_0                       INRECHARGE       INTEGER                             1 --                                                                 
 __INPUT__/CSUB_SUB03A/CHD_0                        IPAKCB           INTEGER                             1 --                                                                 
 __INPUT__/CSUB_SUB03A/CHD_0                        NAUX             INTEGER                             1 --                                                                 
 __INPUT__/CSUB_SUB03A/CHD_0                        MAXBOUND         INTEGER                             1 --                                                                 
 __INPUT__/CSUB_SUB03A/CHD_0                        IPER             INTEGER                             1 --                                                                 
 __INPUT__/CSUB_SUB03A/CHD_0                        IONPER           INTEGER                             1 --                                                                 
 __INPUT__/CSUB_SUB03A/CHD_0                        NBOUND           INTEGER                             1 --                                                                 
 __INPUT__/CSUB_SUB03A/CHD_0                        NCPL             INTEGER                             1 --                                                                 
 __INPUT__/CSUB_SUB03A/CHD_0                        AUXILIARY        STRING LEN=16                       0 --                                                                 
 __INPUT__/CSUB_SUB03A/CHD_0                        CELLID           INTEGER                            12 --                                                                 
 __INPUT__/CSUB_SUB03A/CHD_0                        HEAD             DOUBLE                              4 --                                                                 
 __INPUT__/CSUB_SUB03A/CHD_0                        BOUNDNAME        STRING LEN=40                       0 --                                                                 
 __INPUT__/CSUB_SUB03A/CHD_0                        AUXVAR           DOUBLE                              0 --                                                                 
 -----------------------------------------------------------------------------------------------------------------------------------------------------------------------------



 MEMORY MANAGER TOTAL STORAGE BY DATA TYPE, IN KILOBYTES
 -------------------------------
                    ALLOCATED   
 DATA TYPE           MEMORY     
 -------------------------------
 Character        2.1330000     
 Logical          0.0000000     
 Integer          1.8560000     
 Real             9.0240000     
 -------------------------------
 Total            13.013000     
 Virtual          0.0000000     
 -------------------------------



 OPENED csub_sub03a.csub
 FILE TYPE:CSUB6     UNIT 1006   STATUS:OLD                 
 FORMAT:FORMATTED              ACCESS:SEQUENTIAL          
 ACTION:READ                


 READING SIMULATION OPTIONS
    MAXIMUM NUMBER OF ERRORS THAT WILL BE STORED IS 1000
 END OF SIMULATION OPTIONS

 READING SIMULATION TIMING

 OPENED csub_sub03a.tdis
 FILE TYPE:TDIS   UNIT 1007   STATUS:OLD                 
 FORMAT:FORMATTED              ACCESS:SEQUENTIAL          
 ACTION:READ                


 TDIS -- TEMPORAL DISCRETIZATION PACKAGE,
 VERSION 1 : 11/13/2014 - INPUT READ FROM UNIT 1007
 # File generated by Flopy version 3.5.0.dev0 on 10/30/2023 at 09:03:35.
 PROCESSING TDIS OPTIONS
    SIMULATION TIME UNIT IS DAYS
 END OF TDIS OPTIONS
 PROCESSING TDIS DIMENSIONS
   31 STRESS PERIOD(S) IN SIMULATION
 END OF TDIS DIMENSIONS
 PROCESSING TDIS PERIODDATA


 STRESS PERIOD     LENGTH       TIME STEPS     MULTIPLIER FOR DELT
 ----------------------------------------------------------------------------
        1         1.000000          1                    1.000
        2         365.2500          6                    1.300
        3         365.2500          6                    1.300
        4         365.2500          6                    1.300
        5         365.2500          6                    1.300
        6         365.2500          6                    1.300
        7         365.2500          6                    1.300
        8         365.2500          6                    1.300
        9         365.2500          6                    1.300
       10         365.2500          6                    1.300
       11         365.2500          6                    1.300
       12         365.2500          6                    1.300
       13         365.2500          6                    1.300
       14         365.2500          6                    1.300
       15         365.2500          6                    1.300
       16         365.2500          6                    1.300
       17         365.2500          6                    1.300
       18         365.2500          6                    1.300
       19         365.2500          6                    1.300
       20         365.2500          6                    1.300
       21         365.2500          6                    1.300
       22         365.2500          6                    1.300
       23         365.2500          6                    1.300
       24         365.2500          6                    1.300
       25         365.2500          6                    1.300
       26         365.2500          6                    1.300
       27         365.2500          6                    1.300
       28         365.2500          6                    1.300
       29         365.2500          6                    1.300
       30         365.2500          6                    1.300
       31         365.2500          6                    1.300
 END OF TDIS PERIODDATA
 END OF SIMULATION TIMING

 READING SIMULATION MODELS
    GWF6 model 1 will be created
 END OF SIMULATION MODELS

 READING SIMULATION EXCHANGES
 END OF SIMULATION EXCHANGES

 READING SOLUTIONGROUP

 Creating solution: SLN_1           

 OPENED csub_sub03a.ims
 FILE TYPE:IMS   UNIT 1009   STATUS:OLD                 
 FORMAT:FORMATTED              ACCESS:SEQUENTIAL          
 ACTION:READ                

 END OF SOLUTIONGROUP

PROCESSING MODEL CONNECTIONS

 IMS -- ITERATIVE MODEL SOLUTION PACKAGE, VERSION 6, 4/28/2017
         INPUT READ FROM UNIT 1009
 # File generated by Flopy version 3.5.0.dev0 on 10/30/2023 at 09:03:35.

 PROCESSING IMS OPTIONS
 END OF IMS OPTIONS

 PROCESSING IMS NONLINEAR
 END OF IMS NONLINEAR DATA
 ***UNDER-RELAXATION WILL NOT BE USED***


 PROCESSING LINEAR DATA
 END OF LINEAR DATA
 ***IMS LINEAR SOLVER WILL BE USED***

 IMSLINEAR -- UNSTRUCTURED LINEAR SOLUTION PACKAGE, VERSION 8, 04/28/2017
 A symmetric matrix will be solved

 OUTER ITERATION CONVERGENCE CRITERION    (DVCLOSE) =    0.100000E-08
 MAXIMUM NUMBER OF OUTER ITERATIONS        (MXITER) = 500
 SOLVER PRINTOUT INDEX                     (IPRIMS) = 1
 NONLINEAR ITERATION METHOD            (NONLINMETH) = 0
 LINEAR SOLUTION METHOD                   (LINMETH) = 1

       SOLUTION BY THE        CONJUGATE-GRADIENT       METHOD
 ------------------------------------------------------------------
 MAXIMUM OF 500 CALLS OF SOLUTION ROUTINE
 MAXIMUM OF 300 INTERNAL ITERATIONS PER CALL TO SOLUTION ROUTINE
 LINEAR ACCELERATION METHOD            = CG        
 MATRIX PRECONDITIONING TYPE           = MOD. INCOMPLETE LU  
 MATRIX SCALING APPROACH               = NO SCALING          
 MATRIX REORDERING APPROACH            = ORIGINAL ORDERING        
 NUMBER OF ORTHOGONALIZATIONS          = 0
 HEAD CHANGE CRITERION FOR CLOSURE     =    0.10000E-08
 RESIDUAL CHANGE CRITERION FOR CLOSURE =    0.10000E-05
 RESIDUAL CONVERGENCE OPTION           = 0
 RESIDUAL CONVERGENCE NORM             = INFINITY NORM   
 RELAXATION FACTOR                     =    0.10000E+01




    Solving:  Stress period:     1    Time step:     1

1
                            STRESS PERIOD NO. 1, LENGTH =   1.000000    
                            -----------------------------------------------
                            NUMBER OF TIME STEPS = 1
                            MULTIPLIER FOR DELT =     1.000
IDM inlist_rp iiper=1
IDM RP LIST kper=1
IDM RP LIST varname=CELLID, type=INTEGER1D
Found INODATA CELLIDsize m=3size n=4
CELLID FIRST SET nbound=4
IDM RP LIST varname=HEAD, type=DOUBLE
                            INITIAL TIME STEP SIZE =   1.000000    

 SLN_1 OUTER ITERATION SUMMARY
 ----------------------------------------------------------------------------------------------------------
                                OUTER      INNER                    STEP   MAXIMUM CHANGE MODEL-(CELLID) OR
 OUTER ITERATION STEP       ITERATION  ITERATION  MAXIMUM CHANGE SUCCESS             MODEL-PACKAGE-(NUMBER)
 ----------------------------------------------------------------------------------------------------------
 Model                              1         37       23.347236                              1_GWF-(1,1,1)
[...]
 CSUB_SUB03A/CSUB                                   TCOMP            DOUBLE                            296 --                                                                 
 CSUB_SUB03A/CSUB                                   TCOMPI           DOUBLE                            296 --                                                                 
 CSUB_SUB03A/CSUB                                   TCOMPE           DOUBLE                            296 --                                                                 
 CSUB_SUB03A/CSUB                                   STORAGEE         DOUBLE                            296 --                                                                 
 CSUB_SUB03A/CSUB                                   STORAGEI         DOUBLE                            296 --                                                                 
 CSUB_SUB03A/CSUB                                   SKE              DOUBLE                            296 --                                                                 
 CSUB_SUB03A/CSUB                                   SK               DOUBLE                            296 --                                                                 
 CSUB_SUB03A/CSUB                                   THICKINI         DOUBLE                            296 --                                                                 
 CSUB_SUB03A/CSUB                                   THETAINI         DOUBLE                            296 --                                                                 
 CSUB_SUB03A/CSUB                                   BOUNDNAME        STRING LEN=40                     296 --                                                                 
 CSUB_SUB03A/CSUB                                   NODELISTSIG0     INTEGER                             1 --                                                                 
 CSUB_SUB03A/CSUB                                   SIG0             DOUBLE                              1 --                                                                 
 CSUB_SUB03A/WEL_0                                  NODELIST         INTEGER                             4 --                                                                 
 CSUB_SUB03A/WEL_0                                  NOUPDATEAUXVAR   INTEGER                             0 --                                                                 
 CSUB_SUB03A/WEL_0                                  BOUND            DOUBLE                              4 --                                                                 
 CSUB_SUB03A/WEL_0                                  CONDINPUT        DOUBLE                              0 --                                                                 
 CSUB_SUB03A/WEL_0                                  HCOF             DOUBLE                              4 --                                                                 
 CSUB_SUB03A/WEL_0                                  RHS              DOUBLE                              4 --                                                                 
 CSUB_SUB03A/WEL_0                                  SIMVALS          DOUBLE                              4 --                                                                 
 CSUB_SUB03A/WEL_0                                  SIMTOMVR         DOUBLE                              0 --                                                                 
 CSUB_SUB03A/WEL_0                                  AUXVAR           DOUBLE                              0 --                                                                 
 CSUB_SUB03A/WEL_0                                  BOUNDNAME        STRING LEN=40                       0 --                                                                 
 CSUB_SUB03A/WEL_0                                  BOUNDNAME_CST    STRING LEN=40                       0 --                                                                 
 CSUB_SUB03A/WEL_0                                  CELLID           INTEGER                            12 __INPUT__/CSUB_SUB03A/WEL_0/CELLID                                 
 CSUB_SUB03A/WEL_0                                  BOUNDNAME_IDM    STRING LEN=40                       0 __INPUT__/CSUB_SUB03A/WEL_0/BOUNDNAME                              
 CSUB_SUB03A/WEL_0                                  AUXVAR_IDM       DOUBLE                              0 __INPUT__/CSUB_SUB03A/WEL_0/AUXVAR                                 
 CSUB_SUB03A/WEL_0                                  Q                DOUBLE                              4 __INPUT__/CSUB_SUB03A/WEL_0/Q                                      
 CSUB_SUB03A/RCHA_0                                 NODELIST         INTEGER                           100 --                                                                 
 CSUB_SUB03A/RCHA_0                                 NOUPDATEAUXVAR   INTEGER                             0 --                                                                 
 CSUB_SUB03A/RCHA_0                                 BOUND            DOUBLE                            100 --                                                                 
 CSUB_SUB03A/RCHA_0                                 CONDINPUT        DOUBLE                              0 --                                                                 
 CSUB_SUB03A/RCHA_0                                 HCOF             DOUBLE                            100 --                                                                 
 CSUB_SUB03A/RCHA_0                                 RHS              DOUBLE                            100 --                                                                 
 CSUB_SUB03A/RCHA_0                                 SIMVALS          DOUBLE                            100 --                                                                 
 CSUB_SUB03A/RCHA_0                                 SIMTOMVR         DOUBLE                              0 --                                                                 
 CSUB_SUB03A/RCHA_0                                 AUXVAR           DOUBLE                              0 --                                                                 
 CSUB_SUB03A/RCHA_0                                 BOUNDNAME        STRING LEN=40                       0 --                                                                 
 CSUB_SUB03A/RCHA_0                                 BOUNDNAME_CST    STRING LEN=40                       0 --                                                                 
 CSUB_SUB03A/RCHA_0                                 CELLID           INTEGER                             0 __INPUT__/CSUB_SUB03A/RCHA_0/CELLID                                
 CSUB_SUB03A/RCHA_0                                 BOUNDNAME_IDM    STRING LEN=40                       0 __INPUT__/CSUB_SUB03A/RCHA_0/BOUNDNAME                             
 CSUB_SUB03A/RCHA_0                                 AUXVAR_IDM       DOUBLE                              0 __INPUT__/CSUB_SUB03A/RCHA_0/AUXVAR                                
 CSUB_SUB03A/RCHA_0                                 RECHARGE         DOUBLE                            100 __INPUT__/CSUB_SUB03A/RCHA_0/RECHARGE                              
 CSUB_SUB03A/CHD_0                                  NODELIST         INTEGER                             4 --                                                                 
 CSUB_SUB03A/CHD_0                                  NOUPDATEAUXVAR   INTEGER                             0 --                                                                 
 CSUB_SUB03A/CHD_0                                  BOUND            DOUBLE                              4 --                                                                 
 CSUB_SUB03A/CHD_0                                  CONDINPUT        DOUBLE                              0 --                                                                 
 CSUB_SUB03A/CHD_0                                  HCOF             DOUBLE                              4 --                                                                 
 CSUB_SUB03A/CHD_0                                  RHS              DOUBLE                              4 --                                                                 
 CSUB_SUB03A/CHD_0                                  SIMVALS          DOUBLE                              4 --                                                                 
 CSUB_SUB03A/CHD_0                                  SIMTOMVR         DOUBLE                              0 --                                                                 
 CSUB_SUB03A/CHD_0                                  AUXVAR           DOUBLE                              0 --                                                                 
 CSUB_SUB03A/CHD_0                                  BOUNDNAME        STRING LEN=40                       0 --                                                                 
 CSUB_SUB03A/CHD_0                                  BOUNDNAME_CST    STRING LEN=40                       0 --                                                                 
 CSUB_SUB03A/CHD_0                                  CELLID           INTEGER                            12 __INPUT__/CSUB_SUB03A/CHD_0/CELLID                                 
 CSUB_SUB03A/CHD_0                                  BOUNDNAME_IDM    STRING LEN=40                       0 __INPUT__/CSUB_SUB03A/CHD_0/BOUNDNAME                              
 CSUB_SUB03A/CHD_0                                  AUXVAR_IDM       DOUBLE                              0 __INPUT__/CSUB_SUB03A/CHD_0/AUXVAR                                 
 CSUB_SUB03A/CHD_0                                  RATECHDIN        DOUBLE                              4 --                                                                 
 CSUB_SUB03A/CHD_0                                  RATECHDOUT       DOUBLE                              4 --                                                                 
 CSUB_SUB03A/CHD_0                                  HEAD             DOUBLE                              4 __INPUT__/CSUB_SUB03A/CHD_0/HEAD                                   
 SLN_1/IMSLINEAR                                    DVCLOSE          DOUBLE                              1 --                                                                 
 SLN_1/IMSLINEAR                                    RCLOSE           DOUBLE                              1 --                                                                 
 SLN_1/IMSLINEAR                                    ICNVGOPT         INTEGER                             1 --                                                                 
 SLN_1/IMSLINEAR                                    ITER1            INTEGER                             1 --                                                                 
 SLN_1/IMSLINEAR                                    ILINMETH         INTEGER                             1 --                                                                 
 SLN_1/IMSLINEAR                                    ISCL             INTEGER                             1 --                                                                 
 SLN_1/IMSLINEAR                                    IORD             INTEGER                             1 --                                                                 
 SLN_1/IMSLINEAR                                    NORTH            INTEGER                             1 --                                                                 
 SLN_1/IMSLINEAR                                    RELAX            DOUBLE                              1 --                                                                 
 SLN_1/IMSLINEAR                                    LEVEL            INTEGER                             1 --                                                                 
 SLN_1/IMSLINEAR                                    DROPTOL          DOUBLE                              1 --                                                                 
 SLN_1/IMSLINEAR                                    IDFPARAM         INTEGER                             1 --                                                                 
 SLN_1/IMSLINEAR                                    NJA              INTEGER                             1 --                                                                 
 SLN_1/IMSLINEAR                                    IOUT             INTEGER                             1 --                                                                 
 SLN_1/IMSLINEAR                                    IPC              INTEGER                             1 --                                                                 
 SLN_1/IMSLINEAR                                    IACPC            INTEGER                             1 --                                                                 
 SLN_1/IMSLINEAR                                    NITERC           INTEGER                             1 --                                                                 
 SLN_1/IMSLINEAR                                    NIABCGS          INTEGER                             1 --                                                                 
 SLN_1/IMSLINEAR                                    NIAPC            INTEGER                             1 --                                                                 
 SLN_1/IMSLINEAR                                    NJAPC            INTEGER                             1 --                                                                 
 SLN_1/IMSLINEAR                                    EPFACT           DOUBLE                              1 --                                                                 
 SLN_1/IMSLINEAR                                    L2NORM0          DOUBLE                              1 --                                                                 
 SLN_1/IMSLINEAR                                    NJLU             INTEGER                             1 --                                                                 
 SLN_1/IMSLINEAR                                    NJW              INTEGER                             1 --                                                                 
 SLN_1/IMSLINEAR                                    NWLU             INTEGER                             1 --                                                                 
 SLN_1/IMSLINEAR                                    DSCALE           DOUBLE                              1 --                                                                 
 SLN_1/IMSLINEAR                                    DSCALE2          DOUBLE                              1 --                                                                 
 SLN_1/IMSLINEAR                                    IAPC             INTEGER                           301 --                                                                 
 SLN_1/IMSLINEAR                                    JAPC             INTEGER                          1780 --                                                                 
 SLN_1/IMSLINEAR                                    APC              DOUBLE                           1780 --                                                                 
 SLN_1/IMSLINEAR                                    IW               INTEGER                           300 --                                                                 
 SLN_1/IMSLINEAR                                    W                DOUBLE                            300 --                                                                 
 SLN_1/IMSLINEAR                                    JLU              INTEGER                             1 --                                                                 
 SLN_1/IMSLINEAR                                    JW               INTEGER                             1 --                                                                 
 SLN_1/IMSLINEAR                                    WLU              DOUBLE                              1 --                                                                 
 SLN_1/IMSLINEAR                                    LORDER           INTEGER                             1 --                                                                 
 SLN_1/IMSLINEAR                                    IORDER           INTEGER                             1 --                                                                 
 SLN_1/IMSLINEAR                                    IARO             INTEGER                             2 --                                                                 
 SLN_1/IMSLINEAR                                    JARO             INTEGER                             1 --                                                                 
 SLN_1/IMSLINEAR                                    ARO              DOUBLE                              1 --                                                                 
 SLN_1/IMSLINEAR                                    ID               INTEGER                           300 --                                                                 
 SLN_1/IMSLINEAR                                    D                DOUBLE                            300 --                                                                 
 SLN_1/IMSLINEAR                                    P                DOUBLE                            300 --                                                                 
 SLN_1/IMSLINEAR                                    Q                DOUBLE                            300 --                                                                 
 SLN_1/IMSLINEAR                                    Z                DOUBLE                            300 --                                                                 
 SLN_1/IMSLINEAR                                    T                DOUBLE                              1 --                                                                 
 SLN_1/IMSLINEAR                                    V                DOUBLE                              1 --                                                                 
 SLN_1/IMSLINEAR                                    DHAT             DOUBLE                              1 --                                                                 
 SLN_1/IMSLINEAR                                    PHAT             DOUBLE                              1 --                                                                 
 SLN_1/IMSLINEAR                                    QHAT             DOUBLE                              1 --                                                                 
 -----------------------------------------------------------------------------------------------------------------------------------------------------------------------------



 MEMORY MANAGER TOTAL STORAGE BY DATA TYPE, IN KILOBYTES
 -------------------------------
                    ALLOCATED   
 DATA TYPE           MEMORY     
 -------------------------------
 Character        8.1850000     
 Logical          4.00000000E-02
 Integer          76.220000     
 Real             236.45600     
 -------------------------------
 Total            320.90100     
 Virtual          0.0000000     
 -------------------------------



 Run end date and time (yyyy/mm/dd hh:mm:ss): 2023/10/30  9:03:35
 Elapsed run time:  0.208 Seconds
 Normal termination of simulation.
