 LISTING FILE: CrnkNic.mt3d.list
                         UNIT   2

 OPENING CrnkNic.ftl
 FILE TYPE:FTL   UNIT  39

 OPENING CrnkNic.btn
 FILE TYPE:BTN   UNIT  31

 OPENING CrnkNic.adv
 FILE TYPE:ADV   UNIT  32

 OPENING CrnkNic.gcg
 FILE TYPE:GCG   UNIT  35

 OPENING CrnkNic.ssm
 FILE TYPE:SSM   UNIT  34

 OPENING CrnkNic.sft
 FILE TYPE:SFT   UNIT  19

 OPENING CrnkNic.sftobs
 FILE TYPE:DATA   UNIT  82

                              +++++++++++++++++++++++++++++++++++++++++++++++++++++++++++++++++++++++
                              +                                                                     +
                              +                              MT3D-USGS                              +
                              +             A Modular 3D Multi-Species Transport Model              +
                              +    For Simulation of Advection, Dispersion and Chemical Reactions   +
                              +                of Contaminants in Groundwater Systems               +
                              +                                                                     +
                              +++++++++++++++++++++++++++++++++++++++++++++++++++++++++++++++++++++++

  ----- 
 | M T | ## BTN for MT3DMS, generated by Flopy.                                          
 | 3 D | ##                                                                              
  ----- 
 THE TRANSPORT MODEL CONSISTS OF     1 LAYER(S)    3 ROW(S)  650 COLUMN(S)
 NUMBER OF STRESS PERIOD(S) FOR TRANSPORT SIMULATION =    3
 NUMBER OF ALL COMPONENTS INCLUDED IN SIMULATION =    1
 NUMBER OF MOBILE COMPONENTS INCLUDED IN SIMULATION =    1
 UNIT FOR TIME IS D   ;  UNIT FOR LENGTH IS M   ;  UNIT FOR MASS IS KG  
 OPTIONAL PACKAGES INCLUDED IN CURRENT SIMULATION:
  o ADV   ON UNIT 32
  o SSM   ON UNIT 34
  o GCG   ON UNIT 35
  o SFT   ON UNIT 19


 BTN1 -- BASIC TRANSPORT PACKAGE, VERSION 1, MAY 2016, INPUT READ FROM UNIT 31

 BTN PACKAGE KEYWORD INPUT: 
 DRYCELL OPTION NOT SET
  DRY CELL BUDGET OMITTED FROM GLOBAL MASS BALANCE SUMMARY

 LAYER NUMBER  AQUIFER TYPE
 ------------  ------------
       1            1
                                       WIDTH ALONG ROWS (DELR)  =   1.000000    
                                       WIDTH ALONG COLS (DELC)  =   5.000000    

                           TOP ELEV. OF 1ST LAYER   READ ON UNIT  31 USING FORMAT: "         (650E15.6) "
                           -----------------------------------------------------------------------------

                     CELL THICKNESS (DZ)      FOR LAYER  1 READ ON UNIT  31 USING FORMAT: "         (650E15.6) "
                     ------------------------------------------------------------------------------------------
                                       POROSITY                 =  0.2000000     FOR LAYER  1
                                       CONCN. BOUNDARY ARRAY    =              1 FOR LAYER  1
                                       INITIAL CONC.: COMP.  01 =   3.700000     FOR LAYER  1

 VALUE INDICATING INACTIVE CONCENTRATION CELLS =   -1.000000    
 MINIMUM SATURATED THICKNESS [THKMIN] ALLOWED =  0.0010000 OF TOTAL CELL THICKNESS


 OUTPUT CONTROL OPTIONS
 ----------------------

 DO NOT PRINT CELL CONCENTRATION
 DO NOT PRINT PARTICLE NUMBER IN EACH CELL
 DO NOT PRINT RETARDATION FACTOR
 DO NOT PRINT DISPERSION COEFFICIENT
 SAVE DISSOLVED PHASE CONCENTRATIONS IN UNFORMATTED FILES [MT3Dnnn.UCN]
  FOR EACH SPECIES ON UNITS 201 AND ABOVE

 SIMULATION RESULTS ARE SAVED EVERY   1 TRANSPORT STEP(S)

 NUMBER OF OBSERVATION POINTS =    0

 SAVE ONE-LINE SUMMARY OF MASS BUDGETS IN FILES [MT3Dnnn.MAS]
  FOR EACH SPECIES ON UNITS 601 AND ABOVE, EVERY 10 TRANSPORT STEPS

 MAXIMUM LENGTH ALONG THE X (J) AXIS =   650.0000    
 MAXIMUM LENGTH ALONG THE Y (I) AXIS =   15.00000    
 MAXIMUM LENGTH ALONG THE Z (K) AXIS =   3.000000    
 FMI1 -- FLOW MODEL INTERFACE PACKAGE, VERSION 1, MAY 2016, INPUT READ FROM UNIT 39
 FLOW MODEL IS TRANSIENT
 FLOW MODEL CONTAINS CONSTANT-HEAD CELLS


 ADV1 -- ADVECTION PACKAGE, VERSION 1, MAY 2016, INPUT READ FROM UNIT 32
 ADVECTION IS SOLVED WITH THE UPSTREAM FINITE DIFFERENCE SCHEME
 COURANT NUMBER ALLOWED IN SOLVING THE ADVECTION TERM =  1.00    


 ADVECTION SOLUTION OPTIONS
 --------------------------

 ADVECTION IS SOLVED WITH THE UPSTREAM FINITE DIFFERENCE SCHEME
 COURANT NUMBER ALLOWED IN SOLVING THE ADVECTION TERM =  1.00    

 SSM1 -- SINK & SOURCE MIXING PACKAGE, VERSION 1, MAY 2016, INPUT READ FROM UNIT 34
 HEADER LINE OF THE SSM PACKAGE INPUT FILE:
  F F F F F F F F F F                                                    
 MAJOR STRESS COMPONENTS PRESENT IN THE FLOW MODEL:
 MAXIMUM NUMBER OF POINT SINKS/SOURCES =    1300

 GCG1 -- GENERALIZED CONJUGATE GRADIENT SOLVER PACKAGE, VERSION 1, OCTOBER 2010 INPUT READ FROM UNIT 35
 MAXIMUM OF   10 OUTER ITERATIONS
        AND   50 INNER ITERATIONS ALLOWED FOR CLOSURE
 THE PRECONDITIONING TYPE SELECTED IS MODIFIED INCOMPLETE CHOLESKY (MIC).
 DISPERSION CROSS TERMS LUMPED INTO RIGHT-HAND-SIDE



                                               SOLUTION BY THE GENERALIZED CONJUGATE GRADIENT METHOD
                                               -----------------------------------------------------
                                     MAXIMUM OUTER ITERATIONS ALLOWED FOR CLOSURE =       10
                                     MAXIMUM INNER ITERATIONS ALLOWED FOR CLOSURE =       50
                                                    PRECONDITIONING TYPE SELECTED =    3
                                                           ACCELERATION PARAMETER =     1.0000    
                                       CONCENTRATION CHANGE CRITERION FOR CLOSURE =    0.10000E-05
                                       GCG CONCENTRATION CHANGE PRINTOUT INTERVAL =        1

 SFT1 -- STREAM TRANSPORT PACKAGE, VERSION 1, MAY 2016, INPUT READ FROM UNIT 19
 NUMBER OF STREAMS =   650
 MAXIMUM NUMBER OF STREAM BOUNDARY CONDITIONS =   650
 RCH-BY-RCH INFORMATION WILL BE PRINTED ON UNIT    81
 STREAM-FLOW OBSERVATION OUTPUT  WILL BE SAVED IN UNIT:  82
 STEADY-STATE SFR FLOW SOLUTION IS USED; MASS WILL BE GAINED/LOST
 MASS IS ALLOWED TO EXIT VIA STREAM ET


 STREAM INPUT PARAMETERS
 -----------------------

 STREAM SOLVER OPTION =     1
   1 = FINITE DIFFERENCE FORMULATION
 STREAM SOLVER TIME WEIGHTING FACTOR =  0.50000    
   0.0 = EXPLICIT SCHEME IS USED
   0.5 = CRANK-NICOLSON SCHEME IS USED
   1.0 = FULLY IMPLICIT SCHEME IS USED
 STREAM SOLVER SPACE WEIGHTING FACTOR =   1.0000    
   0.0 = CENTRAL-IN-SPACE WEIGHTING
   1.0 = UPSTREAM WEIGHTING
 CLOSURE CRITERION FOR SFT SOLVER =  0.10000E-05
 MAXIMUM NUMBER OF SFR ITERATIONS =    10
 COURANT CONSTRAINT FOR SFR TIME-STEP =   1.0000    
 PRINT OPTION FOR xMD SOLVER =            0
                                       STRM INIT CONC COMP# 001 =   3.700000    

                           DISP COEF L2/T COMP# 001 READ ON UNIT  19 USING FORMAT: "          (10E15.6) "
                           -----------------------------------------------------------------------------


                                   ++++++++++++++++++++++++++++++++++++++++++++++++++++++++++++++
                                                       STRESS PERIOD NO.  001
                                   ++++++++++++++++++++++++++++++++++++++++++++++++++++++++++++++


 LENGTH OF CURRENT STRESS PERIOD =   30600.00    
 NUMBER OF TIME STEPS FOR CURRENT STRESS PERIOD =    1
 TIME STEP MULTIPLIER USED IN FLOW SOLUTION =   1.000000    

 ***Type of Transport Simulation is TRANSIENT

 USER-SPECIFIED TRANSPORT STEPSIZE =   180.0000    D   
 MAXIMUM NUMBER OF TRANSPORT STEPS ALLOWED  IN ONE FLOW TIME STEP =      2500
 MULTIPLIER FOR SUCCESSIVE TRANSPORT STEPS  [USED IN IMPLICIT SCHEMES] =     1.000
 MAXIMUM TRANSPORT STEP SIZE  [USED IN IMPLICIT SCHEMES] =   0.000000    D   

       NO    LAYER   ROW   COLUMN   CONCENTRATION       TYPE            COMPONENT
       1       1       1       1       3.700000         CONSTANT HEAD       1
       2       1       3       1       3.700000         CONSTANT HEAD       1
       3       1       1       2       3.700000         CONSTANT HEAD       1
       4       1       1       3       3.700000         CONSTANT HEAD       1
       5       1       1       4       3.700000         CONSTANT HEAD       1
       6       1       1       5       3.700000         CONSTANT HEAD       1
       7       1       1       6       3.700000         CONSTANT HEAD       1
       8       1       1       7       3.700000         CONSTANT HEAD       1
       9       1       1       8       3.700000         CONSTANT HEAD       1
      10       1       1       9       3.700000         CONSTANT HEAD       1
      11       1       1      10       3.700000         CONSTANT HEAD       1
      12       1       1      11       3.700000         CONSTANT HEAD       1
      13       1       1      12       3.700000         CONSTANT HEAD       1
      14       1       1      13       3.700000         CONSTANT HEAD       1
      15       1       1      14       3.700000         CONSTANT HEAD       1
      16       1       1      15       3.700000         CONSTANT HEAD       1
      17       1       1      16       3.700000         CONSTANT HEAD       1
      18       1       1      17       3.700000         CONSTANT HEAD       1
      19       1       1      18       3.700000         CONSTANT HEAD       1
      20       1       1      19       3.700000         CONSTANT HEAD       1
      21       1       1      20       3.700000         CONSTANT HEAD       1
      22       1       1      21       3.700000         CONSTANT HEAD       1
      23       1       1      22       3.700000         CONSTANT HEAD       1
      24       1       1      23       3.700000         CONSTANT HEAD       1
      25       1       1      24       3.700000         CONSTANT HEAD       1
      26       1       1      25       3.700000         CONSTANT HEAD       1
      27       1       1      26       3.700000         CONSTANT HEAD       1
      28       1       1      27       3.700000         CONSTANT HEAD       1
      29       1       1      28       3.700000         CONSTANT HEAD       1
      30       1       1      29       3.700000         CONSTANT HEAD       1
      31       1       1      30       3.700000         CONSTANT HEAD       1
      32       1       1      31       3.700000         CONSTANT HEAD       1
      33       1       1      32       3.700000         CONSTANT HEAD       1
      34       1       1      33       3.700000         CONSTANT HEAD       1
      35       1       1      34       3.700000         CONSTANT HEAD       1
      36       1       1      35       3.700000         CONSTANT HEAD       1
      37       1       1      36       3.700000         CONSTANT HEAD       1
      38       1       1      37       3.700000         CONSTANT HEAD       1
      39       1       1      38       3.700000         CONSTANT HEAD       1
      40       1       1      39       3.700000         CONSTANT HEAD       1
      41       1       1      40       3.700000         CONSTANT HEAD       1
      42       1       1      41       3.700000         CONSTANT HEAD       1
      43       1       1      42       3.700000         CONSTANT HEAD       1
      44       1       1      43       3.700000         CONSTANT HEAD       1
      45       1       1      44       3.700000         CONSTANT HEAD       1
      46       1       1      45       3.700000         CONSTANT HEAD       1
      47       1       1      46       3.700000         CONSTANT HEAD       1
      48       1       1      47       3.700000         CONSTANT HEAD       1
      49       1       1      48       3.700000         CONSTANT HEAD       1
      50       1       1      49       3.700000         CONSTANT HEAD       1
      51       1       1      50       3.700000         CONSTANT HEAD       1
      52       1       1      51       3.700000         CONSTANT HEAD       1
      53       1       1      52       3.700000         CONSTANT HEAD       1
      54       1       1      53       3.700000         CONSTANT HEAD       1
      55       1       1      54       3.700000         CONSTANT HEAD       1
      56       1       1      55       3.700000         CONSTANT HEAD       1
      57       1       1      56       3.700000         CONSTANT HEAD       1
      58       1       1      57       3.700000         CONSTANT HEAD       1
      59       1       1      58       3.700000         CONSTANT HEAD       1
      60       1       1      59       3.700000         CONSTANT HEAD       1
      61       1       1      60       3.700000         CONSTANT HEAD       1
      62       1       1      61       3.700000         CONSTANT HEAD       1
      63       1       1      62       3.700000         CONSTANT HEAD       1
      64       1       1      63       3.700000         CONSTANT HEAD       1
      65       1       1      64       3.700000         CONSTANT HEAD       1
      66       1       1      65       3.700000         CONSTANT HEAD       1
      67       1       1      66       3.700000         CONSTANT HEAD       1
      68       1       1      67       3.700000         CONSTANT HEAD       1
      69       1       1      68       3.700000         CONSTANT HEAD       1
      70       1       1      69       3.700000         CONSTANT HEAD       1
      71       1       1      70       3.700000         CONSTANT HEAD       1
      72       1       1      71       3.700000         CONSTANT HEAD       1
      73       1       1      72       3.700000         CONSTANT HEAD       1
      74       1       1      73       3.700000         CONSTANT HEAD       1
      75       1       1      74       3.700000         CONSTANT HEAD       1
      76       1       1      75       3.700000         CONSTANT HEAD       1
      77       1       1      76       3.700000         CONSTANT HEAD       1
      78       1       1      77       3.700000         CONSTANT HEAD       1
      79       1       1      78       3.700000         CONSTANT HEAD       1
      80       1       1      79       3.700000         CONSTANT HEAD       1
      81       1       1      80       3.700000         CONSTANT HEAD       1
      82       1       1      81       3.700000         CONSTANT HEAD       1
      83       1       1      82       3.700000         CONSTANT HEAD       1
      84       1       1      83       3.700000         CONSTANT HEAD       1
      85       1       1      84       3.700000         CONSTANT HEAD       1
      86       1       1      85       3.700000         CONSTANT HEAD       1
      87       1       1      86       3.700000         CONSTANT HEAD       1
      88       1       1      87       3.700000         CONSTANT HEAD       1
      89       1       1      88       3.700000         CONSTANT HEAD       1
      90       1       1      89       3.700000         CONSTANT HEAD       1
      91       1       1      90       3.700000         CONSTANT HEAD       1
      92       1       1      91       3.700000         CONSTANT HEAD       1
      93       1       1      92       3.700000         CONSTANT HEAD       1
      94       1       1      93       3.700000         CONSTANT HEAD       1
      95       1       1      94       3.700000         CONSTANT HEAD       1
      96       1       1      95       3.700000         CONSTANT HEAD       1
      97       1       1      96       3.700000         CONSTANT HEAD       1
      98       1       1      97       3.700000         CONSTANT HEAD       1
      99       1       1      98       3.700000         CONSTANT HEAD       1
     100       1       1      99       3.700000         CONSTANT HEAD       1
     101       1       1     100       3.700000         CONSTANT HEAD       1
     102       1       1     101       3.700000         CONSTANT HEAD       1
     103       1       1     102       3.700000         CONSTANT HEAD       1
     104       1       1     103       3.700000         CONSTANT HEAD       1
     105       1       1     104       3.700000         CONSTANT HEAD       1
     106       1       1     105       3.700000         CONSTANT HEAD       1
     107       1       1     106       3.700000         CONSTANT HEAD       1
     108       1       1     107       3.700000         CONSTANT HEAD       1
     109       1       1     108       3.700000         CONSTANT HEAD       1
     110       1       1     109       3.700000         CONSTANT HEAD       1
     111       1       1     110       3.700000         CONSTANT HEAD       1
     112       1       1     111       3.700000         CONSTANT HEAD       1
     113       1       1     112       3.700000         CONSTANT HEAD       1
     114       1       1     113       3.700000         CONSTANT HEAD       1
     115       1       1     114       3.700000         CONSTANT HEAD       1
     116       1       1     115       3.700000         CONSTANT HEAD       1
     117       1       1     116       3.700000         CONSTANT HEAD       1
     118       1       1     117       3.700000         CONSTANT HEAD       1
     119       1       1     118       3.700000         CONSTANT HEAD       1
     120       1       1     119       3.700000         CONSTANT HEAD       1
     121       1       1     120       3.700000         CONSTANT HEAD       1
     122       1       1     121       3.700000         CONSTANT HEAD       1
     123       1       1     122       3.700000         CONSTANT HEAD       1
     124       1       1     123       3.700000         CONSTANT HEAD       1
     125       1       1     124       3.700000         CONSTANT HEAD       1
     126       1       1     125       3.700000         CONSTANT HEAD       1
     127       1       1     126       3.700000         CONSTANT HEAD       1
     128       1       1     127       3.700000         CONSTANT HEAD       1
     129       1       1     128       3.700000         CONSTANT HEAD       1
     130       1       1     129       3.700000         CONSTANT HEAD       1
     131       1       1     130       3.700000         CONSTANT HEAD       1
     132       1       1     131       3.700000         CONSTANT HEAD       1
     133       1       1     132       3.700000         CONSTANT HEAD       1
     134       1       1     133       3.700000         CONSTANT HEAD       1
     135       1       1     134       3.700000         CONSTANT HEAD       1
     136       1       1     135       3.700000         CONSTANT HEAD       1
     137       1       1     136       3.700000         CONSTANT HEAD       1
     138       1       1     137       3.700000         CONSTANT HEAD       1
     139       1       1     138       3.700000         CONSTANT HEAD       1
     140       1       1     139       3.700000         CONSTANT HEAD       1
     141       1       1     140       3.700000         CONSTANT HEAD       1
     142       1       1     141       3.700000         CONSTANT HEAD       1
     143       1       1     142       3.700000         CONSTANT HEAD       1
     144       1       1     143       3.700000         CONSTANT HEAD       1
     145       1       1     144       3.700000         CONSTANT HEAD       1
     146       1       1     145       3.700000         CONSTANT HEAD       1
     147       1       1     146       3.700000         CONSTANT HEAD       1
     148       1       1     147       3.700000         CONSTANT HEAD       1
     149       1       1     148       3.700000         CONSTANT HEAD       1
     150       1       1     149       3.700000         CONSTANT HEAD       1
     151       1       1     150       3.700000         CONSTANT HEAD       1
     152       1       1     151       3.700000         CONSTANT HEAD       1
     153       1       1     152       3.700000         CONSTANT HEAD       1
     154       1       1     153       3.700000         CONSTANT HEAD       1
     155       1       1     154       3.700000         CONSTANT HEAD       1
     156       1       1     155       3.700000         CONSTANT HEAD       1
     157       1       1     156       3.700000         CONSTANT HEAD       1
     158       1       1     157       3.700000         CONSTANT HEAD       1
     159       1       1     158       3.700000         CONSTANT HEAD       1
     160       1       1     159       3.700000         CONSTANT HEAD       1
     161       1       1     160       3.700000         CONSTANT HEAD       1
     162       1       1     161       3.700000         CONSTANT HEAD       1
     163       1       1     162       3.700000         CONSTANT HEAD       1
     164       1       1     163       3.700000         CONSTANT HEAD       1
     165       1       1     164       3.700000         CONSTANT HEAD       1
     166       1       1     165       3.700000         CONSTANT HEAD       1
     167       1       1     166       3.700000         CONSTANT HEAD       1
     168       1       1     167       3.700000         CONSTANT HEAD       1
     169       1       1     168       3.700000         CONSTANT HEAD       1
     170       1       1     169       3.700000         CONSTANT HEAD       1
     171       1       1     170       3.700000         CONSTANT HEAD       1
     172       1       1     171       3.700000         CONSTANT HEAD       1
     173       1       1     172       3.700000         CONSTANT HEAD       1
     174       1       1     173       3.700000         CONSTANT HEAD       1
     175       1       1     174       3.700000         CONSTANT HEAD       1
     176       1       1     175       3.700000         CONSTANT HEAD       1
     177       1       1     176       3.700000         CONSTANT HEAD       1
     178       1       1     177       3.700000         CONSTANT HEAD       1
     179       1       1     178       3.700000         CONSTANT HEAD       1
     180       1       1     179       3.700000         CONSTANT HEAD       1
     181       1       1     180       3.700000         CONSTANT HEAD       1
     182       1       1     181       3.700000         CONSTANT HEAD       1
     183       1       1     182       3.700000         CONSTANT HEAD       1
     184       1       1     183       3.700000         CONSTANT HEAD       1
     185       1       1     184       3.700000         CONSTANT HEAD       1
     186       1       1     185       3.700000         CONSTANT HEAD       1
     187       1       1     186       3.700000         CONSTANT HEAD       1
     188       1       1     187       3.700000         CONSTANT HEAD       1
     189       1       1     188       3.700000         CONSTANT HEAD       1
     190       1       1     189       3.700000         CONSTANT HEAD       1
     191       1       1     190       3.700000         CONSTANT HEAD       1
     192       1       1     191       3.700000         CONSTANT HEAD       1
     193       1       1     192       3.700000         CONSTANT HEAD       1
     194       1       1     193       3.700000         CONSTANT HEAD       1
     195       1       1     194       3.700000         CONSTANT HEAD       1
     196       1       1     195       3.700000         CONSTANT HEAD       1
     197       1       1     196       3.700000         CONSTANT HEAD       1
     198       1       1     197       3.700000         CONSTANT HEAD       1
     199       1       1     198       3.700000         CONSTANT HEAD       1
     200       1       1     199       3.700000         CONSTANT HEAD       1
     201       1       1     200       3.700000         CONSTANT HEAD       1
     202       1       1     201       3.700000         CONSTANT HEAD       1
     203       1       1     202       3.700000         CONSTANT HEAD       1
     204       1       1     203       3.700000         CONSTANT HEAD       1
     205       1       1     204       3.700000         CONSTANT HEAD       1
     206       1       1     205       3.700000         CONSTANT HEAD       1
     207       1       1     206       3.700000         CONSTANT HEAD       1
     208       1       1     207       3.700000         CONSTANT HEAD       1
     209       1       1     208       3.700000         CONSTANT HEAD       1
     210       1       1     209       3.700000         CONSTANT HEAD       1
     211       1       1     210       3.700000         CONSTANT HEAD       1
     212       1       1     211       3.700000         CONSTANT HEAD       1
     213       1       1     212       3.700000         CONSTANT HEAD       1
     214       1       1     213       3.700000         CONSTANT HEAD       1
     215       1       1     214       3.700000         CONSTANT HEAD       1
     216       1       1     215       3.700000         CONSTANT HEAD       1
     217       1       1     216       3.700000         CONSTANT HEAD       1
     218       1       1     217       3.700000         CONSTANT HEAD       1
     219       1       1     218       3.700000         CONSTANT HEAD       1
     220       1       1     219       3.700000         CONSTANT HEAD       1
     221       1       1     220       3.700000         CONSTANT HEAD       1
     222       1       1     221       3.700000         CONSTANT HEAD       1
     223       1       1     222       3.700000         CONSTANT HEAD       1
     224       1       1     223       3.700000         CONSTANT HEAD       1
     225       1       1     224       3.700000         CONSTANT HEAD       1
     226       1       1     225       3.700000         CONSTANT HEAD       1
     227       1       1     226       3.700000         CONSTANT HEAD       1
     228       1       1     227       3.700000         CONSTANT HEAD       1
     229       1       1     228       3.700000         CONSTANT HEAD       1
     230       1       1     229       3.700000         CONSTANT HEAD       1
     231       1       1     230       3.700000         CONSTANT HEAD       1
     232       1       1     231       3.700000         CONSTANT HEAD       1
     233       1       1     232       3.700000         CONSTANT HEAD       1
     234       1       1     233       3.700000         CONSTANT HEAD       1
     235       1       1     234       3.700000         CONSTANT HEAD       1
     236       1       1     235       3.700000         CONSTANT HEAD       1
     237       1       1     236       3.700000         CONSTANT HEAD       1
     238       1       1     237       3.700000         CONSTANT HEAD       1
     239       1       1     238       3.700000         CONSTANT HEAD       1
     240       1       1     239       3.700000         CONSTANT HEAD       1
     241       1       1     240       3.700000         CONSTANT HEAD       1
     242       1       1     241       3.700000         CONSTANT HEAD       1
     243       1       1     242       3.700000         CONSTANT HEAD       1
     244       1       1     243       3.700000         CONSTANT HEAD       1
     245       1       1     244       3.700000         CONSTANT HEAD       1
     246       1       1     245       3.700000         CONSTANT HEAD       1
     247       1       1     246       3.700000         CONSTANT HEAD       1
     248       1       1     247       3.700000         CONSTANT HEAD       1
     249       1       1     248       3.700000         CONSTANT HEAD       1
     250       1       1     249       3.700000         CONSTANT HEAD       1
     251       1       1     250       3.700000         CONSTANT HEAD       1
     252       1       1     251       3.700000         CONSTANT HEAD       1
     253       1       1     252       3.700000         CONSTANT HEAD       1
     254       1       1     253       3.700000         CONSTANT HEAD       1
     255       1       1     254       3.700000         CONSTANT HEAD       1
     256       1       1     255       3.700000         CONSTANT HEAD       1
     257       1       1     256       3.700000         CONSTANT HEAD       1
     258       1       1     257       3.700000         CONSTANT HEAD       1
     259       1       1     258       3.700000         CONSTANT HEAD       1
     260       1       1     259       3.700000         CONSTANT HEAD       1
     261       1       1     260       3.700000         CONSTANT HEAD       1
     262       1       1     261       3.700000         CONSTANT HEAD       1
     263       1       1     262       3.700000         CONSTANT HEAD       1
     264       1       1     263       3.700000         CONSTANT HEAD       1
     265       1       1     264       3.700000         CONSTANT HEAD       1
     266       1       1     265       3.700000         CONSTANT HEAD       1
     267       1       1     266       3.700000         CONSTANT HEAD       1
     268       1       1     267       3.700000         CONSTANT HEAD       1
     269       1       1     268       3.700000         CONSTANT HEAD       1
     270       1       1     269       3.700000         CONSTANT HEAD       1
     271       1       1     270       3.700000         CONSTANT HEAD       1
     272       1       1     271       3.700000         CONSTANT HEAD       1
     273       1       1     272       3.700000         CONSTANT HEAD       1
     274       1       1     273       3.700000         CONSTANT HEAD       1
     275       1       1     274       3.700000         CONSTANT HEAD       1
     276       1       1     275       3.700000         CONSTANT HEAD       1
     277       1       1     276       3.700000         CONSTANT HEAD       1
     278       1       1     277       3.700000         CONSTANT HEAD       1
     279       1       1     278       3.700000         CONSTANT HEAD       1
     280       1       1     279       3.700000         CONSTANT HEAD       1
     281       1       1     280       3.700000         CONSTANT HEAD       1
     282       1       1     281       3.700000         CONSTANT HEAD       1
     283       1       1     282       3.700000         CONSTANT HEAD       1
     284       1       1     283       3.700000         CONSTANT HEAD       1
     285       1       1     284       3.700000         CONSTANT HEAD       1
     286       1       1     285       3.700000         CONSTANT HEAD       1
     287       1       1     286       3.700000         CONSTANT HEAD       1
     288       1       1     287       3.700000         CONSTANT HEAD       1
     289       1       1     288       3.700000         CONSTANT HEAD       1
     290       1       1     289       3.700000         CONSTANT HEAD       1
     291       1       1     290       3.700000         CONSTANT HEAD       1
     292       1       1     291       3.700000         CONSTANT HEAD       1
     293       1       1     292       3.700000         CONSTANT HEAD       1
     294       1       1     293       3.700000         CONSTANT HEAD       1
     295       1       1     294       3.700000         CONSTANT HEAD       1
     296       1       1     295       3.700000         CONSTANT HEAD       1
     297       1       1     296       3.700000         CONSTANT HEAD       1
     298       1       1     297       3.700000         CONSTANT HEAD       1
     299       1       1     298       3.700000         CONSTANT HEAD       1
     300       1       1     299       3.700000         CONSTANT HEAD       1
     301       1       1     300       3.700000         CONSTANT HEAD       1
     302       1       1     301       3.700000         CONSTANT HEAD       1
     303       1       1     302       3.700000         CONSTANT HEAD       1
     304       1       1     303       3.700000         CONSTANT HEAD       1
     305       1       1     304       3.700000         CONSTANT HEAD       1
     306       1       1     305       3.700000         CONSTANT HEAD       1
     307       1       1     306       3.700000         CONSTANT HEAD       1
     308       1       1     307       3.700000         CONSTANT HEAD       1
     309       1       1     308       3.700000         CONSTANT HEAD       1
     310       1       1     309       3.700000         CONSTANT HEAD       1
     311       1       1     310       3.700000         CONSTANT HEAD       1
     312       1       1     311       3.700000         CONSTANT HEAD       1
     313       1       1     312       3.700000         CONSTANT HEAD       1
     314       1       1     313       3.700000         CONSTANT HEAD       1
     315       1       1     314       3.700000         CONSTANT HEAD       1
     316       1       1     315       3.700000         CONSTANT HEAD       1
     317       1       1     316       3.700000         CONSTANT HEAD       1
     318       1       1     317       3.700000         CONSTANT HEAD       1
     319       1       1     318       3.700000         CONSTANT HEAD       1
     320       1       1     319       3.700000         CONSTANT HEAD       1
     321       1       1     320       3.700000         CONSTANT HEAD       1
     322       1       1     321       3.700000         CONSTANT HEAD       1
     323       1       1     322       3.700000         CONSTANT HEAD       1
     324       1       1     323       3.700000         CONSTANT HEAD       1
     325       1       1     324       3.700000         CONSTANT HEAD       1
     326       1       1     325       3.700000         CONSTANT HEAD       1
     327       1       1     326       3.700000         CONSTANT HEAD       1
     328       1       1     327       3.700000         CONSTANT HEAD       1
     329       1       1     328       3.700000         CONSTANT HEAD       1
     330       1       1     329       3.700000         CONSTANT HEAD       1
     331       1       1     330       3.700000         CONSTANT HEAD       1
     332       1       1     331       3.700000         CONSTANT HEAD       1
     333       1       1     332       3.700000         CONSTANT HEAD       1
     334       1       1     333       3.700000         CONSTANT HEAD       1
     335       1       1     334       3.700000         CONSTANT HEAD       1
     336       1       1     335       3.700000         CONSTANT HEAD       1
     337       1       1     336       3.700000         CONSTANT HEAD       1
     338       1       1     337       3.700000         CONSTANT HEAD       1
     339       1       1     338       3.700000         CONSTANT HEAD       1
     340       1       1     339       3.700000         CONSTANT HEAD       1
     341       1       1     340       3.700000         CONSTANT HEAD       1
     342       1       1     341       3.700000         CONSTANT HEAD       1
     343       1       1     342       3.700000         CONSTANT HEAD       1
     344       1       1     343       3.700000         CONSTANT HEAD       1
     345       1       1     344       3.700000         CONSTANT HEAD       1
     346       1       1     345       3.700000         CONSTANT HEAD       1
     347       1       1     346       3.700000         CONSTANT HEAD       1
     348       1       1     347       3.700000         CONSTANT HEAD       1
     349       1       1     348       3.700000         CONSTANT HEAD       1
     350       1       1     349       3.700000         CONSTANT HEAD       1
     351       1       1     350       3.700000         CONSTANT HEAD       1
     352       1       1     351       3.700000         CONSTANT HEAD       1
     353       1       1     352       3.700000         CONSTANT HEAD       1
     354       1       1     353       3.700000         CONSTANT HEAD       1
     355       1       1     354       3.700000         CONSTANT HEAD       1
     356       1       1     355       3.700000         CONSTANT HEAD       1
     357       1       1     356       3.700000         CONSTANT HEAD       1
     358       1       1     357       3.700000         CONSTANT HEAD       1
     359       1       1     358       3.700000         CONSTANT HEAD       1
     360       1       1     359       3.700000         CONSTANT HEAD       1
     361       1       1     360       3.700000         CONSTANT HEAD       1
     362       1       1     361       3.700000         CONSTANT HEAD       1
     363       1       1     362       3.700000         CONSTANT HEAD       1
     364       1       1     363       3.700000         CONSTANT HEAD       1
     365       1       1     364       3.700000         CONSTANT HEAD       1
     366       1       1     365       3.700000         CONSTANT HEAD       1
     367       1       1     366       3.700000         CONSTANT HEAD       1
     368       1       1     367       3.700000         CONSTANT HEAD       1
     369       1       1     368       3.700000         CONSTANT HEAD       1
     370       1       1     369       3.700000         CONSTANT HEAD       1
     371       1       1     370       3.700000         CONSTANT HEAD       1
     372       1       1     371       3.700000         CONSTANT HEAD       1
     373       1       1     372       3.700000         CONSTANT HEAD       1
     374       1       1     373       3.700000         CONSTANT HEAD       1
     375       1       1     374       3.700000         CONSTANT HEAD       1
     376       1       1     375       3.700000         CONSTANT HEAD       1
     377       1       1     376       3.700000         CONSTANT HEAD       1
     378       1       1     377       3.700000         CONSTANT HEAD       1
     379       1       1     378       3.700000         CONSTANT HEAD       1
     380       1       1     379       3.700000         CONSTANT HEAD       1
     381       1       1     380       3.700000         CONSTANT HEAD       1
     382       1       1     381       3.700000         CONSTANT HEAD       1
     383       1       1     382       3.700000         CONSTANT HEAD       1
     384       1       1     383       3.700000         CONSTANT HEAD       1
     385       1       1     384       3.700000         CONSTANT HEAD       1
     386       1       1     385       3.700000         CONSTANT HEAD       1
     387       1       1     386       3.700000         CONSTANT HEAD       1
     388       1       1     387       3.700000         CONSTANT HEAD       1
     389       1       1     388       3.700000         CONSTANT HEAD       1
     390       1       1     389       3.700000         CONSTANT HEAD       1
     391       1       1     390       3.700000         CONSTANT HEAD       1
     392       1       1     391       3.700000         CONSTANT HEAD       1
     393       1       1     392       3.700000         CONSTANT HEAD       1
     394       1       1     393       3.700000         CONSTANT HEAD       1
     395       1       1     394       3.700000         CONSTANT HEAD       1
     396       1       1     395       3.700000         CONSTANT HEAD       1
     397       1       1     396       3.700000         CONSTANT HEAD       1
     398       1       1     397       3.700000         CONSTANT HEAD       1
     399       1       1     398       3.700000         CONSTANT HEAD       1
     400       1       1     399       3.700000         CONSTANT HEAD       1
     401       1       1     400       3.700000         CONSTANT HEAD       1
     402       1       1     401       3.700000         CONSTANT HEAD       1
     403       1       1     402       3.700000         CONSTANT HEAD       1
     404       1       1     403       3.700000         CONSTANT HEAD       1
     405       1       1     404       3.700000         CONSTANT HEAD       1
     406       1       1     405       3.700000         CONSTANT HEAD       1
     407       1       1     406       3.700000         CONSTANT HEAD       1
     408       1       1     407       3.700000         CONSTANT HEAD       1
     409       1       1     408       3.700000         CONSTANT HEAD       1
     410       1       1     409       3.700000         CONSTANT HEAD       1
     411       1       1     410       3.700000         CONSTANT HEAD       1
     412       1       1     411       3.700000         CONSTANT HEAD       1
     413       1       1     412       3.700000         CONSTANT HEAD       1
     414       1       1     413       3.700000         CONSTANT HEAD       1
     415       1       1     414       3.700000         CONSTANT HEAD       1
     416       1       1     415       3.700000         CONSTANT HEAD       1
     417       1       1     416       3.700000         CONSTANT HEAD       1
     418       1       1     417       3.700000         CONSTANT HEAD       1
     419       1       1     418       3.700000         CONSTANT HEAD       1
     420       1       1     419       3.700000         CONSTANT HEAD       1
     421       1       1     420       3.700000         CONSTANT HEAD       1
     422       1       1     421       3.700000         CONSTANT HEAD       1
     423       1       1     422       3.700000         CONSTANT HEAD       1
     424       1       1     423       3.700000         CONSTANT HEAD       1
     425       1       1     424       3.700000         CONSTANT HEAD       1
     426       1       1     425       3.700000         CONSTANT HEAD       1
     427       1       1     426       3.700000         CONSTANT HEAD       1
     428       1       1     427       3.700000         CONSTANT HEAD       1
     429       1       1     428       3.700000         CONSTANT HEAD       1
     430       1       1     429       3.700000         CONSTANT HEAD       1
     431       1       1     430       3.700000         CONSTANT HEAD       1
     432       1       1     431       3.700000         CONSTANT HEAD       1
     433       1       1     432       3.700000         CONSTANT HEAD       1
     434       1       1     433       3.700000         CONSTANT HEAD       1
     435       1       1     434       3.700000         CONSTANT HEAD       1
     436       1       1     435       3.700000         CONSTANT HEAD       1
     437       1       1     436       3.700000         CONSTANT HEAD       1
     438       1       1     437       3.700000         CONSTANT HEAD       1
     439       1       1     438       3.700000         CONSTANT HEAD       1
     440       1       1     439       3.700000         CONSTANT HEAD       1
     441       1       1     440       3.700000         CONSTANT HEAD       1
     442       1       1     441       3.700000         CONSTANT HEAD       1
     443       1       1     442       3.700000         CONSTANT HEAD       1
     444       1       1     443       3.700000         CONSTANT HEAD       1
     445       1       1     444       3.700000         CONSTANT HEAD       1
     446       1       1     445       3.700000         CONSTANT HEAD       1
     447       1       1     446       3.700000         CONSTANT HEAD       1
     448       1       1     447       3.700000         CONSTANT HEAD       1
     449       1       1     448       3.700000         CONSTANT HEAD       1
     450       1       1     449       3.700000         CONSTANT HEAD       1
     451       1       1     450       3.700000         CONSTANT HEAD       1
     452       1       1     451       3.700000         CONSTANT HEAD       1
     453       1       1     452       3.700000         CONSTANT HEAD       1
     454       1       1     453       3.700000         CONSTANT HEAD       1
     455       1       1     454       3.700000         CONSTANT HEAD       1
     456       1       1     455       3.700000         CONSTANT HEAD       1
     457       1       1     456       3.700000         CONSTANT HEAD       1
     458       1       1     457       3.700000         CONSTANT HEAD       1
     459       1       1     458       3.700000         CONSTANT HEAD       1
     460       1       1     459       3.700000         CONSTANT HEAD       1
     461       1       1     460       3.700000         CONSTANT HEAD       1
     462       1       1     461       3.700000         CONSTANT HEAD       1
     463       1       1     462       3.700000         CONSTANT HEAD       1
     464       1       1     463       3.700000         CONSTANT HEAD       1
     465       1       1     464       3.700000         CONSTANT HEAD       1
     466       1       1     465       3.700000         CONSTANT HEAD       1
     467       1       1     466       3.700000         CONSTANT HEAD       1
     468       1       1     467       3.700000         CONSTANT HEAD       1
     469       1       1     468       3.700000         CONSTANT HEAD       1
     470       1       1     469       3.700000         CONSTANT HEAD       1
     471       1       1     470       3.700000         CONSTANT HEAD       1
     472       1       1     471       3.700000         CONSTANT HEAD       1
     473       1       1     472       3.700000         CONSTANT HEAD       1
     474       1       1     473       3.700000         CONSTANT HEAD       1
     475       1       1     474       3.700000         CONSTANT HEAD       1
     476       1       1     475       3.700000         CONSTANT HEAD       1
     477       1       1     476       3.700000         CONSTANT HEAD       1
     478       1       1     477       3.700000         CONSTANT HEAD       1
     479       1       1     478       3.700000         CONSTANT HEAD       1
     480       1       1     479       3.700000         CONSTANT HEAD       1
     481       1       1     480       3.700000         CONSTANT HEAD       1
     482       1       1     481       3.700000         CONSTANT HEAD       1
     483       1       1     482       3.700000         CONSTANT HEAD       1
     484       1       1     483       3.700000         CONSTANT HEAD       1
     485       1       1     484       3.700000         CONSTANT HEAD       1
     486       1       1     485       3.700000         CONSTANT HEAD       1
     487       1       1     486       3.700000         CONSTANT HEAD       1
     488       1       1     487       3.700000         CONSTANT HEAD       1
     489       1       1     488       3.700000         CONSTANT HEAD       1
     490       1       1     489       3.700000         CONSTANT HEAD       1
     491       1       1     490       3.700000         CONSTANT HEAD       1
     492       1       1     491       3.700000         CONSTANT HEAD       1
     493       1       1     492       3.700000         CONSTANT HEAD       1
     494       1       1     493       3.700000         CONSTANT HEAD       1
     495       1       1     494       3.700000         CONSTANT HEAD       1
     496       1       1     495       3.700000         CONSTANT HEAD       1
     497       1       1     496       3.700000         CONSTANT HEAD       1
     498       1       1     497       3.700000         CONSTANT HEAD       1
     499       1       1     498       3.700000         CONSTANT HEAD       1
     500       1       1     499       3.700000         CONSTANT HEAD       1
     501       1       1     500       3.700000         CONSTANT HEAD       1
     502       1       1     501       3.700000         CONSTANT HEAD       1
     503       1       1     502       3.700000         CONSTANT HEAD       1
     504       1       1     503       3.700000         CONSTANT HEAD       1
     505       1       1     504       3.700000         CONSTANT HEAD       1
     506       1       1     505       3.700000         CONSTANT HEAD       1
     507       1       1     506       3.700000         CONSTANT HEAD       1
     508       1       1     507       3.700000         CONSTANT HEAD       1
     509       1       1     508       3.700000         CONSTANT HEAD       1
     510       1       1     509       3.700000         CONSTANT HEAD       1
     511       1       1     510       3.700000         CONSTANT HEAD       1
     512       1       1     511       3.700000         CONSTANT HEAD       1
     513       1       1     512       3.700000         CONSTANT HEAD       1
     514       1       1     513       3.700000         CONSTANT HEAD       1
     515       1       1     514       3.700000         CONSTANT HEAD       1
     516       1       1     515       3.700000         CONSTANT HEAD       1
     517       1       1     516       3.700000         CONSTANT HEAD       1
     518       1       1     517       3.700000         CONSTANT HEAD       1
     519       1       1     518       3.700000         CONSTANT HEAD       1
     520       1       1     519       3.700000         CONSTANT HEAD       1
     521       1       1     520       3.700000         CONSTANT HEAD       1
     522       1       1     521       3.700000         CONSTANT HEAD       1
     523       1       1     522       3.700000         CONSTANT HEAD       1
     524       1       1     523       3.700000         CONSTANT HEAD       1
     525       1       1     524       3.700000         CONSTANT HEAD       1
     526       1       1     525       3.700000         CONSTANT HEAD       1
     527       1       1     526       3.700000         CONSTANT HEAD       1
     528       1       1     527       3.700000         CONSTANT HEAD       1
     529       1       1     528       3.700000         CONSTANT HEAD       1
     530       1       1     529       3.700000         CONSTANT HEAD       1
     531       1       1     530       3.700000         CONSTANT HEAD       1
     532       1       1     531       3.700000         CONSTANT HEAD       1
     533       1       1     532       3.700000         CONSTANT HEAD       1
     534       1       1     533       3.700000         CONSTANT HEAD       1
     535       1       1     534       3.700000         CONSTANT HEAD       1
     536       1       1     535       3.700000         CONSTANT HEAD       1
     537       1       1     536       3.700000         CONSTANT HEAD       1
     538       1       1     537       3.700000         CONSTANT HEAD       1
     539       1       1     538       3.700000         CONSTANT HEAD       1
     540       1       1     539       3.700000         CONSTANT HEAD       1
     541       1       1     540       3.700000         CONSTANT HEAD       1
     542       1       1     541       3.700000         CONSTANT HEAD       1
     543       1       1     542       3.700000         CONSTANT HEAD       1
     544       1       1     543       3.700000         CONSTANT HEAD       1
     545       1       1     544       3.700000         CONSTANT HEAD       1
     546       1       1     545       3.700000         CONSTANT HEAD       1
     547       1       1     546       3.700000         CONSTANT HEAD       1
     548       1       1     547       3.700000         CONSTANT HEAD       1
     549       1       1     548       3.700000         CONSTANT HEAD       1
     550       1       1     549       3.700000         CONSTANT HEAD       1
     551       1       1     550       3.700000         CONSTANT HEAD       1
     552       1       1     551       3.700000         CONSTANT HEAD       1
     553       1       1     552       3.700000         CONSTANT HEAD       1
     554       1       1     553       3.700000         CONSTANT HEAD       1
     555       1       1     554       3.700000         CONSTANT HEAD       1
     556       1       1     555       3.700000         CONSTANT HEAD       1
     557       1       1     556       3.700000         CONSTANT HEAD       1
     558       1       1     557       3.700000         CONSTANT HEAD       1
     559       1       1     558       3.700000         CONSTANT HEAD       1
     560       1       1     559       3.700000         CONSTANT HEAD       1
     561       1       1     560       3.700000         CONSTANT HEAD       1
     562       1       1     561       3.700000         CONSTANT HEAD       1
     563       1       1     562       3.700000         CONSTANT HEAD       1
     564       1       1     563       3.700000         CONSTANT HEAD       1
     565       1       1     564       3.700000         CONSTANT HEAD       1
     566       1       1     565       3.700000         CONSTANT HEAD       1
     567       1       1     566       3.700000         CONSTANT HEAD       1
     568       1       1     567       3.700000         CONSTANT HEAD       1
     569       1       1     568       3.700000         CONSTANT HEAD       1
     570       1       1     569       3.700000         CONSTANT HEAD       1
     571       1       1     570       3.700000         CONSTANT HEAD       1
     572       1       1     571       3.700000         CONSTANT HEAD       1
     573       1       1     572       3.700000         CONSTANT HEAD       1
     574       1       1     573       3.700000         CONSTANT HEAD       1
     575       1       1     574       3.700000         CONSTANT HEAD       1
     576       1       1     575       3.700000         CONSTANT HEAD       1
     577       1       1     576       3.700000         CONSTANT HEAD       1
     578       1       1     577       3.700000         CONSTANT HEAD       1
     579       1       1     578       3.700000         CONSTANT HEAD       1
     580       1       1     579       3.700000         CONSTANT HEAD       1
     581       1       1     580       3.700000         CONSTANT HEAD       1
     582       1       1     581       3.700000         CONSTANT HEAD       1
     583       1       1     582       3.700000         CONSTANT HEAD       1
     584       1       1     583       3.700000         CONSTANT HEAD       1
     585       1       1     584       3.700000         CONSTANT HEAD       1
     586       1       1     585       3.700000         CONSTANT HEAD       1
     587       1       1     586       3.700000         CONSTANT HEAD       1
     588       1       1     587       3.700000         CONSTANT HEAD       1
     589       1       1     588       3.700000         CONSTANT HEAD       1
     590       1       1     589       3.700000         CONSTANT HEAD       1
     591       1       1     590       3.700000         CONSTANT HEAD       1
     592       1       1     591       3.700000         CONSTANT HEAD       1
     593       1       1     592       3.700000         CONSTANT HEAD       1
     594       1       1     593       3.700000         CONSTANT HEAD       1
     595       1       1     594       3.700000         CONSTANT HEAD       1
     596       1       1     595       3.700000         CONSTANT HEAD       1
     597       1       1     596       3.700000         CONSTANT HEAD       1
     598       1       1     597       3.700000         CONSTANT HEAD       1
     599       1       1     598       3.700000         CONSTANT HEAD       1
     600       1       1     599       3.700000         CONSTANT HEAD       1
     601       1       1     600       3.700000         CONSTANT HEAD       1
     602       1       1     601       3.700000         CONSTANT HEAD       1
     603       1       1     602       3.700000         CONSTANT HEAD       1
     604       1       1     603       3.700000         CONSTANT HEAD       1
     605       1       1     604       3.700000         CONSTANT HEAD       1
     606       1       1     605       3.700000         CONSTANT HEAD       1
     607       1       1     606       3.700000         CONSTANT HEAD       1
     608       1       1     607       3.700000         CONSTANT HEAD       1
     609       1       1     608       3.700000         CONSTANT HEAD       1
     610       1       1     609       3.700000         CONSTANT HEAD       1
     611       1       1     610       3.700000         CONSTANT HEAD       1
     612       1       1     611       3.700000         CONSTANT HEAD       1
     613       1       1     612       3.700000         CONSTANT HEAD       1
     614       1       1     613       3.700000         CONSTANT HEAD       1
     615       1       1     614       3.700000         CONSTANT HEAD       1
     616       1       1     615       3.700000         CONSTANT HEAD       1
     617       1       1     616       3.700000         CONSTANT HEAD       1
     618       1       1     617       3.700000         CONSTANT HEAD       1
     619       1       1     618       3.700000         CONSTANT HEAD       1
     620       1       1     619       3.700000         CONSTANT HEAD       1
     621       1       1     620       3.700000         CONSTANT HEAD       1
     622       1       1     621       3.700000         CONSTANT HEAD       1
     623       1       1     622       3.700000         CONSTANT HEAD       1
     624       1       1     623       3.700000         CONSTANT HEAD       1
     625       1       1     624       3.700000         CONSTANT HEAD       1
     626       1       1     625       3.700000         CONSTANT HEAD       1
     627       1       1     626       3.700000         CONSTANT HEAD       1
     628       1       1     627       3.700000         CONSTANT HEAD       1
     629       1       1     628       3.700000         CONSTANT HEAD       1
     630       1       1     629       3.700000         CONSTANT HEAD       1
     631       1       1     630       3.700000         CONSTANT HEAD       1
     632       1       1     631       3.700000         CONSTANT HEAD       1
     633       1       1     632       3.700000         CONSTANT HEAD       1
     634       1       1     633       3.700000         CONSTANT HEAD       1
     635       1       1     634       3.700000         CONSTANT HEAD       1
     636       1       1     635       3.700000         CONSTANT HEAD       1
     637       1       1     636       3.700000         CONSTANT HEAD       1
     638       1       1     637       3.700000         CONSTANT HEAD       1
     639       1       1     638       3.700000         CONSTANT HEAD       1
     640       1       1     639       3.700000         CONSTANT HEAD       1
     641       1       1     640       3.700000         CONSTANT HEAD       1
     642       1       1     641       3.700000         CONSTANT HEAD       1
     643       1       1     642       3.700000         CONSTANT HEAD       1
     644       1       1     643       3.700000         CONSTANT HEAD       1
     645       1       1     644       3.700000         CONSTANT HEAD       1
     646       1       1     645       3.700000         CONSTANT HEAD       1
     647       1       1     646       3.700000         CONSTANT HEAD       1
     648       1       1     647       3.700000         CONSTANT HEAD       1
     649       1       1     648       3.700000         CONSTANT HEAD       1
     650       1       1     649       3.700000         CONSTANT HEAD       1
     651       1       1     650       3.700000         CONSTANT HEAD       1
     652       1       3       2       3.700000         CONSTANT HEAD       1
     653       1       3       3       3.700000         CONSTANT HEAD       1
     654       1       3       4       3.700000         CONSTANT HEAD       1
     655       1       3       5       3.700000         CONSTANT HEAD       1
     656       1       3       6       3.700000         CONSTANT HEAD       1
     657       1       3       7       3.700000         CONSTANT HEAD       1
     658       1       3       8       3.700000         CONSTANT HEAD       1
     659       1       3       9       3.700000         CONSTANT HEAD       1
     660       1       3      10       3.700000         CONSTANT HEAD       1
     661       1       3      11       3.700000         CONSTANT HEAD       1
     662       1       3      12       3.700000         CONSTANT HEAD       1
     663       1       3      13       3.700000         CONSTANT HEAD       1
     664       1       3      14       3.700000         CONSTANT HEAD       1
     665       1       3      15       3.700000         CONSTANT HEAD       1
     666       1       3      16       3.700000         CONSTANT HEAD       1
     667       1       3      17       3.700000         CONSTANT HEAD       1
     668       1       3      18       3.700000         CONSTANT HEAD       1
     669       1       3      19       3.700000         CONSTANT HEAD       1
     670       1       3      20       3.700000         CONSTANT HEAD       1
     671       1       3      21       3.700000         CONSTANT HEAD       1
     672       1       3      22       3.700000         CONSTANT HEAD       1
     673       1       3      23       3.700000         CONSTANT HEAD       1
     674       1       3      24       3.700000         CONSTANT HEAD       1
     675       1       3      25       3.700000         CONSTANT HEAD       1
     676       1       3      26       3.700000         CONSTANT HEAD       1
     677       1       3      27       3.700000         CONSTANT HEAD       1
     678       1       3      28       3.700000         CONSTANT HEAD       1
     679       1       3      29       3.700000         CONSTANT HEAD       1
     680       1       3      30       3.700000         CONSTANT HEAD       1
     681       1       3      31       3.700000         CONSTANT HEAD       1
     682       1       3      32       3.700000         CONSTANT HEAD       1
     683       1       3      33       3.700000         CONSTANT HEAD       1
     684       1       3      34       3.700000         CONSTANT HEAD       1
     685       1       3      35       3.700000         CONSTANT HEAD       1
     686       1       3      36       3.700000         CONSTANT HEAD       1
     687       1       3      37       3.700000         CONSTANT HEAD       1
     688       1       3      38       3.700000         CONSTANT HEAD       1
     689       1       3      39       3.700000         CONSTANT HEAD       1
     690       1       3      40       3.700000         CONSTANT HEAD       1
     691       1       3      41       3.700000         CONSTANT HEAD       1
     692       1       3      42       3.700000         CONSTANT HEAD       1
     693       1       3      43       3.700000         CONSTANT HEAD       1
     694       1       3      44       3.700000         CONSTANT HEAD       1
     695       1       3      45       3.700000         CONSTANT HEAD       1
     696       1       3      46       3.700000         CONSTANT HEAD       1
     697       1       3      47       3.700000         CONSTANT HEAD       1
     698       1       3      48       3.700000         CONSTANT HEAD       1
     699       1       3      49       3.700000         CONSTANT HEAD       1
     700       1       3      50       3.700000         CONSTANT HEAD       1
     701       1       3      51       3.700000         CONSTANT HEAD       1
     702       1       3      52       3.700000         CONSTANT HEAD       1
     703       1       3      53       3.700000         CONSTANT HEAD       1
     704       1       3      54       3.700000         CONSTANT HEAD       1
     705       1       3      55       3.700000         CONSTANT HEAD       1
     706       1       3      56       3.700000         CONSTANT HEAD       1
     707       1       3      57       3.700000         CONSTANT HEAD       1
     708       1       3      58       3.700000         CONSTANT HEAD       1
     709       1       3      59       3.700000         CONSTANT HEAD       1
     710       1       3      60       3.700000         CONSTANT HEAD       1
     711       1       3      61       3.700000         CONSTANT HEAD       1
     712       1       3      62       3.700000         CONSTANT HEAD       1
     713       1       3      63       3.700000         CONSTANT HEAD       1
     714       1       3      64       3.700000         CONSTANT HEAD       1
     715       1       3      65       3.700000         CONSTANT HEAD       1
     716       1       3      66       3.700000         CONSTANT HEAD       1
     717       1       3      67       3.700000         CONSTANT HEAD       1
     718       1       3      68       3.700000         CONSTANT HEAD       1
     719       1       3      69       3.700000         CONSTANT HEAD       1
     720       1       3      70       3.700000         CONSTANT HEAD       1
     721       1       3      71       3.700000         CONSTANT HEAD       1
     722       1       3      72       3.700000         CONSTANT HEAD       1
     723       1       3      73       3.700000         CONSTANT HEAD       1
     724       1       3      74       3.700000         CONSTANT HEAD       1
     725       1       3      75       3.700000         CONSTANT HEAD       1
     726       1       3      76       3.700000         CONSTANT HEAD       1
     727       1       3      77       3.700000         CONSTANT HEAD       1
     728       1       3      78       3.700000         CONSTANT HEAD       1
     729       1       3      79       3.700000         CONSTANT HEAD       1
     730       1       3      80       3.700000         CONSTANT HEAD       1
     731       1       3      81       3.700000         CONSTANT HEAD       1
     732       1       3      82       3.700000         CONSTANT HEAD       1
     733       1       3      83       3.700000         CONSTANT HEAD       1
     734       1       3      84       3.700000         CONSTANT HEAD       1
     735       1       3      85       3.700000         CONSTANT HEAD       1
     736       1       3      86       3.700000         CONSTANT HEAD       1
     737       1       3      87       3.700000         CONSTANT HEAD       1
     738       1       3      88       3.700000         CONSTANT HEAD       1
     739       1       3      89       3.700000         CONSTANT HEAD       1
     740       1       3      90       3.700000         CONSTANT HEAD       1
     741       1       3      91       3.700000         CONSTANT HEAD       1
     742       1       3      92       3.700000         CONSTANT HEAD       1
     743       1       3      93       3.700000         CONSTANT HEAD       1
     744       1       3      94       3.700000         CONSTANT HEAD       1
     745       1       3      95       3.700000         CONSTANT HEAD       1
     746       1       3      96       3.700000         CONSTANT HEAD       1
     747       1       3      97       3.700000         CONSTANT HEAD       1
     748       1       3      98       3.700000         CONSTANT HEAD       1
     749       1       3      99       3.700000         CONSTANT HEAD       1
     750       1       3     100       3.700000         CONSTANT HEAD       1
     751       1       3     101       3.700000         CONSTANT HEAD       1
     752       1       3     102       3.700000         CONSTANT HEAD       1
     753       1       3     103       3.700000         CONSTANT HEAD       1
     754       1       3     104       3.700000         CONSTANT HEAD       1
     755       1       3     105       3.700000         CONSTANT HEAD       1
     756       1       3     106       3.700000         CONSTANT HEAD       1
     757       1       3     107       3.700000         CONSTANT HEAD       1
     758       1       3     108       3.700000         CONSTANT HEAD       1
     759       1       3     109       3.700000         CONSTANT HEAD       1
     760       1       3     110       3.700000         CONSTANT HEAD       1
     761       1       3     111       3.700000         CONSTANT HEAD       1
     762       1       3     112       3.700000         CONSTANT HEAD       1
     763       1       3     113       3.700000         CONSTANT HEAD       1
     764       1       3     114       3.700000         CONSTANT HEAD       1
     765       1       3     115       3.700000         CONSTANT HEAD       1
     766       1       3     116       3.700000         CONSTANT HEAD       1
     767       1       3     117       3.700000         CONSTANT HEAD       1
     768       1       3     118       3.700000         CONSTANT HEAD       1
     769       1       3     119       3.700000         CONSTANT HEAD       1
     770       1       3     120       3.700000         CONSTANT HEAD       1
     771       1       3     121       3.700000         CONSTANT HEAD       1
     772       1       3     122       3.700000         CONSTANT HEAD       1
     773       1       3     123       3.700000         CONSTANT HEAD       1
     774       1       3     124       3.700000         CONSTANT HEAD       1
     775       1       3     125       3.700000         CONSTANT HEAD       1
     776       1       3     126       3.700000         CONSTANT HEAD       1
     777       1       3     127       3.700000         CONSTANT HEAD       1
     778       1       3     128       3.700000         CONSTANT HEAD       1
     779       1       3     129       3.700000         CONSTANT HEAD       1
     780       1       3     130       3.700000         CONSTANT HEAD       1
     781       1       3     131       3.700000         CONSTANT HEAD       1
     782       1       3     132       3.700000         CONSTANT HEAD       1
     783       1       3     133       3.700000         CONSTANT HEAD       1
     784       1       3     134       3.700000         CONSTANT HEAD       1
     785       1       3     135       3.700000         CONSTANT HEAD       1
     786       1       3     136       3.700000         CONSTANT HEAD       1
     787       1       3     137       3.700000         CONSTANT HEAD       1
     788       1       3     138       3.700000         CONSTANT HEAD       1
     789       1       3     139       3.700000         CONSTANT HEAD       1
     790       1       3     140       3.700000         CONSTANT HEAD       1
     791       1       3     141       3.700000         CONSTANT HEAD       1
     792       1       3     142       3.700000         CONSTANT HEAD       1
     793       1       3     143       3.700000         CONSTANT HEAD       1
     794       1       3     144       3.700000         CONSTANT HEAD       1
     795       1       3     145       3.700000         CONSTANT HEAD       1
     796       1       3     146       3.700000         CONSTANT HEAD       1
     797       1       3     147       3.700000         CONSTANT HEAD       1
     798       1       3     148       3.700000         CONSTANT HEAD       1
     799       1       3     149       3.700000         CONSTANT HEAD       1
     800       1       3     150       3.700000         CONSTANT HEAD       1
     801       1       3     151       3.700000         CONSTANT HEAD       1
     802       1       3     152       3.700000         CONSTANT HEAD       1
     803       1       3     153       3.700000         CONSTANT HEAD       1
     804       1       3     154       3.700000         CONSTANT HEAD       1
     805       1       3     155       3.700000         CONSTANT HEAD       1
     806       1       3     156       3.700000         CONSTANT HEAD       1
     807       1       3     157       3.700000         CONSTANT HEAD       1
     808       1       3     158       3.700000         CONSTANT HEAD       1
     809       1       3     159       3.700000         CONSTANT HEAD       1
     810       1       3     160       3.700000         CONSTANT HEAD       1
     811       1       3     161       3.700000         CONSTANT HEAD       1
     812       1       3     162       3.700000         CONSTANT HEAD       1
     813       1       3     163       3.700000         CONSTANT HEAD       1
     814       1       3     164       3.700000         CONSTANT HEAD       1
     815       1       3     165       3.700000         CONSTANT HEAD       1
     816       1       3     166       3.700000         CONSTANT HEAD       1
     817       1       3     167       3.700000         CONSTANT HEAD       1
     818       1       3     168       3.700000         CONSTANT HEAD       1
     819       1       3     169       3.700000         CONSTANT HEAD       1
     820       1       3     170       3.700000         CONSTANT HEAD       1
     821       1       3     171       3.700000         CONSTANT HEAD       1
     822       1       3     172       3.700000         CONSTANT HEAD       1
     823       1       3     173       3.700000         CONSTANT HEAD       1
     824       1       3     174       3.700000         CONSTANT HEAD       1
     825       1       3     175       3.700000         CONSTANT HEAD       1
     826       1       3     176       3.700000         CONSTANT HEAD       1
     827       1       3     177       3.700000         CONSTANT HEAD       1
     828       1       3     178       3.700000         CONSTANT HEAD       1
     829       1       3     179       3.700000         CONSTANT HEAD       1
     830       1       3     180       3.700000         CONSTANT HEAD       1
     831       1       3     181       3.700000         CONSTANT HEAD       1
     832       1       3     182       3.700000         CONSTANT HEAD       1
     833       1       3     183       3.700000         CONSTANT HEAD       1
     834       1       3     184       3.700000         CONSTANT HEAD       1
     835       1       3     185       3.700000         CONSTANT HEAD       1
     836       1       3     186       3.700000         CONSTANT HEAD       1
     837       1       3     187       3.700000         CONSTANT HEAD       1
     838       1       3     188       3.700000         CONSTANT HEAD       1
     839       1       3     189       3.700000         CONSTANT HEAD       1
     840       1       3     190       3.700000         CONSTANT HEAD       1
     841       1       3     191       3.700000         CONSTANT HEAD       1
     842       1       3     192       3.700000         CONSTANT HEAD       1
     843       1       3     193       3.700000         CONSTANT HEAD       1
     844       1       3     194       3.700000         CONSTANT HEAD       1
     845       1       3     195       3.700000         CONSTANT HEAD       1
     846       1       3     196       3.700000         CONSTANT HEAD       1
     847       1       3     197       3.700000         CONSTANT HEAD       1
     848       1       3     198       3.700000         CONSTANT HEAD       1
     849       1       3     199       3.700000         CONSTANT HEAD       1
     850       1       3     200       3.700000         CONSTANT HEAD       1
     851       1       3     201       3.700000         CONSTANT HEAD       1
     852       1       3     202       3.700000         CONSTANT HEAD       1
     853       1       3     203       3.700000         CONSTANT HEAD       1
     854       1       3     204       3.700000         CONSTANT HEAD       1
     855       1       3     205       3.700000         CONSTANT HEAD       1
     856       1       3     206       3.700000         CONSTANT HEAD       1
     857       1       3     207       3.700000         CONSTANT HEAD       1
     858       1       3     208       3.700000         CONSTANT HEAD       1
     859       1       3     209       3.700000         CONSTANT HEAD       1
     860       1       3     210       3.700000         CONSTANT HEAD       1
     861       1       3     211       3.700000         CONSTANT HEAD       1
     862       1       3     212       3.700000         CONSTANT HEAD       1
     863       1       3     213       3.700000         CONSTANT HEAD       1
     864       1       3     214       3.700000         CONSTANT HEAD       1
     865       1       3     215       3.700000         CONSTANT HEAD       1
     866       1       3     216       3.700000         CONSTANT HEAD       1
     867       1       3     217       3.700000         CONSTANT HEAD       1
     868       1       3     218       3.700000         CONSTANT HEAD       1
     869       1       3     219       3.700000         CONSTANT HEAD       1
     870       1       3     220       3.700000         CONSTANT HEAD       1
     871       1       3     221       3.700000         CONSTANT HEAD       1
     872       1       3     222       3.700000         CONSTANT HEAD       1
     873       1       3     223       3.700000         CONSTANT HEAD       1
     874       1       3     224       3.700000         CONSTANT HEAD       1
     875       1       3     225       3.700000         CONSTANT HEAD       1
     876       1       3     226       3.700000         CONSTANT HEAD       1
     877       1       3     227       3.700000         CONSTANT HEAD       1
     878       1       3     228       3.700000         CONSTANT HEAD       1
     879       1       3     229       3.700000         CONSTANT HEAD       1
     880       1       3     230       3.700000         CONSTANT HEAD       1
     881       1       3     231       3.700000         CONSTANT HEAD       1
     882       1       3     232       3.700000         CONSTANT HEAD       1
     883       1       3     233       3.700000         CONSTANT HEAD       1
     884       1       3     234       3.700000         CONSTANT HEAD       1
     885       1       3     235       3.700000         CONSTANT HEAD       1
     886       1       3     236       3.700000         CONSTANT HEAD       1
     887       1       3     237       3.700000         CONSTANT HEAD       1
     888       1       3     238       3.700000         CONSTANT HEAD       1
     889       1       3     239       3.700000         CONSTANT HEAD       1
     890       1       3     240       3.700000         CONSTANT HEAD       1
     891       1       3     241       3.700000         CONSTANT HEAD       1
     892       1       3     242       3.700000         CONSTANT HEAD       1
     893       1       3     243       3.700000         CONSTANT HEAD       1
     894       1       3     244       3.700000         CONSTANT HEAD       1
     895       1       3     245       3.700000         CONSTANT HEAD       1
     896       1       3     246       3.700000         CONSTANT HEAD       1
     897       1       3     247       3.700000         CONSTANT HEAD       1
     898       1       3     248       3.700000         CONSTANT HEAD       1
     899       1       3     249       3.700000         CONSTANT HEAD       1
     900       1       3     250       3.700000         CONSTANT HEAD       1
     901       1       3     251       3.700000         CONSTANT HEAD       1
     902       1       3     252       3.700000         CONSTANT HEAD       1
     903       1       3     253       3.700000         CONSTANT HEAD       1
     904       1       3     254       3.700000         CONSTANT HEAD       1
     905       1       3     255       3.700000         CONSTANT HEAD       1
     906       1       3     256       3.700000         CONSTANT HEAD       1
     907       1       3     257       3.700000         CONSTANT HEAD       1
     908       1       3     258       3.700000         CONSTANT HEAD       1
     909       1       3     259       3.700000         CONSTANT HEAD       1
     910       1       3     260       3.700000         CONSTANT HEAD       1
     911       1       3     261       3.700000         CONSTANT HEAD       1
     912       1       3     262       3.700000         CONSTANT HEAD       1
     913       1       3     263       3.700000         CONSTANT HEAD       1
     914       1       3     264       3.700000         CONSTANT HEAD       1
     915       1       3     265       3.700000         CONSTANT HEAD       1
     916       1       3     266       3.700000         CONSTANT HEAD       1
     917       1       3     267       3.700000         CONSTANT HEAD       1
     918       1       3     268       3.700000         CONSTANT HEAD       1
     919       1       3     269       3.700000         CONSTANT HEAD       1
     920       1       3     270       3.700000         CONSTANT HEAD       1
     921       1       3     271       3.700000         CONSTANT HEAD       1
     922       1       3     272       3.700000         CONSTANT HEAD       1
     923       1       3     273       3.700000         CONSTANT HEAD       1
[...]
  MAX. CHANGE LAYER,ROW,COL MAX. CHANGE LAYER,ROW,COL MAX. CHANGE LAYER,ROW,COL MAX. CHANGE LAYER,ROW,COL MAX. CHANGE LAYER,ROW,COL
 ------------------------------------------------------------------------------------------------------------------------------------
    0.000     (  1,  1,  1)   0.000     (  1,  1,  1)


                     STREAM MASS BUDGETS AT END OF TRANSPORT STEP  247, TIME STEP    1, STRESS PERIOD    3 FOR COMPONENT   1
                     -------------------------------------------------------------------------------------------------------

                                         CUMULATIVE MASS [M]                                     MASS FOR THIS TIME STEP [M]
                                         -------------------                                    --------------
                      STREAM DEPLETION =   1924.823                          STREAM DEPLETION =  0.4328273E-03
                      INFLOW TO STREAM =   5010.536                          INFLOW TO STREAM =   8.325000    
                          GW TO STREAM =   476.5448                              GW TO STREAM =  0.9990391    
                         PRECIPITATION =   0.000000                             PRECIPITATION =   0.000000    
                                RUNOFF =   0.000000                                    RUNOFF =   0.000000    
                CONSTANT CONCENTRATION =   0.000000                    CONSTANT CONCENTRATION =   0.000000    
                             MASS GAIN =   0.000000                                 MASS GAIN =   0.000000    
                                         -------------------                                    --------------
                              TOTAL IN =   7411.904                                  TOTAL IN =   9.324471    

                   STREAM ACCUMULATION =   1924.828                       STREAM ACCUMULATION =  0.2500215E-05
                        STREAM OUTFLOW =   5487.068                            STREAM OUTFLOW =   9.324471    
                          STREAM TO GW =   0.000000                              STREAM TO GW =   0.000000    
                CONSTANT CONCENTRATION =   0.000000                    CONSTANT CONCENTRATION =   0.000000    
                           EVAPORATION =   0.000000                               EVAPORATION =   0.000000    
                             MASS LOSS =   0.000000                                 MASS LOSS =   0.000000    
                                         -------------------                                    --------------
                             TOTAL OUT =   7411.896                                 TOTAL OUT =   9.324474    

                        NET (IN - OUT) =  0.7324219E-02                        NET (IN - OUT) = -0.2861023E-05
                 DISCREPANCY (PERCENT) =  0.9881701E-04                 DISCREPANCY (PERCENT) = -0.3068295E-04
                                              FLOW ERR (QIN-QOUT-DV) = -0.9536743E-06 [L3/T]




 >>>>>>>>>>>>>>>>>>>>>>>>>>>>>>>>>>>>>>>>>>>>>>>>>>>>>>>FOR COMPONENT NO. 01<<<<<<<<<<<<<<<<<<<<<<<<<<<<<<<<<<<<<<<<<<<<<<<<<<<<<<<


                                            -------------------------------------------
                                                      TRANSPORT STEP NO.  247
                                            -------------------------------------------

 TOTAL ELAPSED TIME SINCE BEGINNING OF SIMULATION =   85860.00    D   
 .....................................................................

                     CUMULATIVE MASS BUDGETS AT END OF TRANSPORT STEP  247, TIME STEP    1, STRESS PERIOD    3
                     -----------------------------------------------------------------------------------------

                                                             IN                           OUT
                                                      ----------------             ----------------
                               CONSTANT CONCENTRATION:    0.000000                    0.000000    
                                        CONSTANT HEAD:    1071.731                   -595.1927    
                                               STREAM:    0.000000                   -476.5448    
                               MASS STOR (FLOW MODEL):   0.5161509E-02              -0.6986623E-07
                                MASS STORAGE (SOLUTE):    0.000000                    0.000000    
                            ---------------------------------------------------------------------------
                                              [TOTAL]:    1071.736     KG            -1071.738     KG  

                                                          NET (IN - OUT):  -0.1098633E-02
                                                   DISCREPANCY (PERCENT):  -0.1025095E-03
     2 CALLS TO GCG PACKAGE FOR TRANSPORT TIME STEP   248 IN FLOW TIME STEP     1 STRESS PERIOD     3
      2 TOTAL ITERATIONS
  MAXIMUM CONCENTRATION CHANGES FOR EACH ITERATION:
  MAX. CHANGE LAYER,ROW,COL MAX. CHANGE LAYER,ROW,COL MAX. CHANGE LAYER,ROW,COL MAX. CHANGE LAYER,ROW,COL MAX. CHANGE LAYER,ROW,COL
 ------------------------------------------------------------------------------------------------------------------------------------
    0.000     (  1,  1,  1)   0.000     (  1,  1,  1)


                     STREAM MASS BUDGETS AT END OF TRANSPORT STEP  248, TIME STEP    1, STRESS PERIOD    3 FOR COMPONENT   1
                     -------------------------------------------------------------------------------------------------------

                                         CUMULATIVE MASS [M]                                     MASS FOR THIS TIME STEP [M]
                                         -------------------                                    --------------
                      STREAM DEPLETION =   1924.824                          STREAM DEPLETION =  0.3973352E-03
                      INFLOW TO STREAM =   5018.861                          INFLOW TO STREAM =   8.325000    
                          GW TO STREAM =   477.5439                              GW TO STREAM =  0.9990391    
                         PRECIPITATION =   0.000000                             PRECIPITATION =   0.000000    
                                RUNOFF =   0.000000                                    RUNOFF =   0.000000    
                CONSTANT CONCENTRATION =   0.000000                    CONSTANT CONCENTRATION =   0.000000    
                             MASS GAIN =   0.000000                                 MASS GAIN =   0.000000    
                                         -------------------                                    --------------
                              TOTAL IN =   7421.229                                  TOTAL IN =   9.324436    

                   STREAM ACCUMULATION =   1924.828                       STREAM ACCUMULATION =  0.2399782E-05
                        STREAM OUTFLOW =   5496.393                            STREAM OUTFLOW =   9.324436    
                          STREAM TO GW =   0.000000                              STREAM TO GW =   0.000000    
                CONSTANT CONCENTRATION =   0.000000                    CONSTANT CONCENTRATION =   0.000000    
                           EVAPORATION =   0.000000                               EVAPORATION =   0.000000    
                             MASS LOSS =   0.000000                                 MASS LOSS =   0.000000    
                                         -------------------                                    --------------
                             TOTAL OUT =   7421.221                                 TOTAL OUT =   9.324439    

                        NET (IN - OUT) =  0.7812500E-02                        NET (IN - OUT) = -0.2861023E-05
                 DISCREPANCY (PERCENT) =  0.1052724E-03                 DISCREPANCY (PERCENT) = -0.3068306E-04
                                              FLOW ERR (QIN-QOUT-DV) = -0.9536743E-06 [L3/T]




 >>>>>>>>>>>>>>>>>>>>>>>>>>>>>>>>>>>>>>>>>>>>>>>>>>>>>>>FOR COMPONENT NO. 01<<<<<<<<<<<<<<<<<<<<<<<<<<<<<<<<<<<<<<<<<<<<<<<<<<<<<<<


                                            -------------------------------------------
                                                      TRANSPORT STEP NO.  248
                                            -------------------------------------------

 TOTAL ELAPSED TIME SINCE BEGINNING OF SIMULATION =   86040.00    D   
 .....................................................................

                     CUMULATIVE MASS BUDGETS AT END OF TRANSPORT STEP  248, TIME STEP    1, STRESS PERIOD    3
                     -----------------------------------------------------------------------------------------

                                                             IN                           OUT
                                                      ----------------             ----------------
                               CONSTANT CONCENTRATION:    0.000000                    0.000000    
                                        CONSTANT HEAD:    1073.978                   -596.4405    
                                               STREAM:    0.000000                   -477.5439    
                               MASS STOR (FLOW MODEL):   0.5161509E-02              -0.6986623E-07
                                MASS STORAGE (SOLUTE):    0.000000                    0.000000    
                            ---------------------------------------------------------------------------
                                              [TOTAL]:    1073.983     KG            -1073.984     KG  

                                                          NET (IN - OUT):  -0.1098633E-02
                                                   DISCREPANCY (PERCENT):  -0.1022951E-03
     2 CALLS TO GCG PACKAGE FOR TRANSPORT TIME STEP   249 IN FLOW TIME STEP     1 STRESS PERIOD     3
      2 TOTAL ITERATIONS
  MAXIMUM CONCENTRATION CHANGES FOR EACH ITERATION:
  MAX. CHANGE LAYER,ROW,COL MAX. CHANGE LAYER,ROW,COL MAX. CHANGE LAYER,ROW,COL MAX. CHANGE LAYER,ROW,COL MAX. CHANGE LAYER,ROW,COL
 ------------------------------------------------------------------------------------------------------------------------------------
    0.000     (  1,  1,  1)   0.000     (  1,  1,  1)


                     STREAM MASS BUDGETS AT END OF TRANSPORT STEP  249, TIME STEP    1, STRESS PERIOD    3 FOR COMPONENT   1
                     -------------------------------------------------------------------------------------------------------

                                         CUMULATIVE MASS [M]                                     MASS FOR THIS TIME STEP [M]
                                         -------------------                                    --------------
                      STREAM DEPLETION =   1924.824                          STREAM DEPLETION =  0.3647458E-03
                      INFLOW TO STREAM =   5027.186                          INFLOW TO STREAM =   8.325000    
                          GW TO STREAM =   478.5429                              GW TO STREAM =  0.9990391    
                         PRECIPITATION =   0.000000                             PRECIPITATION =   0.000000    
                                RUNOFF =   0.000000                                    RUNOFF =   0.000000    
                CONSTANT CONCENTRATION =   0.000000                    CONSTANT CONCENTRATION =   0.000000    
                             MASS GAIN =   0.000000                                 MASS GAIN =   0.000000    
                                         -------------------                                    --------------
                              TOTAL IN =   7430.553                                  TOTAL IN =   9.324403    

                   STREAM ACCUMULATION =   1924.828                       STREAM ACCUMULATION =  0.2303372E-05
                        STREAM OUTFLOW =   5505.717                            STREAM OUTFLOW =   9.324404    
                          STREAM TO GW =   0.000000                              STREAM TO GW =   0.000000    
                CONSTANT CONCENTRATION =   0.000000                    CONSTANT CONCENTRATION =   0.000000    
                           EVAPORATION =   0.000000                               EVAPORATION =   0.000000    
                             MASS LOSS =   0.000000                                 MASS LOSS =   0.000000    
                                         -------------------                                    --------------
                             TOTAL OUT =   7430.545                                 TOTAL OUT =   9.324406    

                        NET (IN - OUT) =  0.7812500E-02                        NET (IN - OUT) = -0.2861023E-05
                 DISCREPANCY (PERCENT) =  0.1051403E-03                 DISCREPANCY (PERCENT) = -0.3068317E-04
                                              FLOW ERR (QIN-QOUT-DV) = -0.9536743E-06 [L3/T]




 >>>>>>>>>>>>>>>>>>>>>>>>>>>>>>>>>>>>>>>>>>>>>>>>>>>>>>>FOR COMPONENT NO. 01<<<<<<<<<<<<<<<<<<<<<<<<<<<<<<<<<<<<<<<<<<<<<<<<<<<<<<<


                                            -------------------------------------------
                                                      TRANSPORT STEP NO.  249
                                            -------------------------------------------

 TOTAL ELAPSED TIME SINCE BEGINNING OF SIMULATION =   86220.00    D   
 .....................................................................

                     CUMULATIVE MASS BUDGETS AT END OF TRANSPORT STEP  249, TIME STEP    1, STRESS PERIOD    3
                     -----------------------------------------------------------------------------------------

                                                             IN                           OUT
                                                      ----------------             ----------------
                               CONSTANT CONCENTRATION:    0.000000                    0.000000    
                                        CONSTANT HEAD:    1076.225                   -597.6883    
                                               STREAM:    0.000000                   -478.5429    
                               MASS STOR (FLOW MODEL):   0.5161509E-02              -0.6986623E-07
                                MASS STORAGE (SOLUTE):    0.000000                    0.000000    
                            ---------------------------------------------------------------------------
                                              [TOTAL]:    1076.230     KG            -1076.231     KG  

                                                          NET (IN - OUT):  -0.1098633E-02
                                                   DISCREPANCY (PERCENT):  -0.1020815E-03
     2 CALLS TO GCG PACKAGE FOR TRANSPORT TIME STEP   250 IN FLOW TIME STEP     1 STRESS PERIOD     3
      2 TOTAL ITERATIONS
  MAXIMUM CONCENTRATION CHANGES FOR EACH ITERATION:
  MAX. CHANGE LAYER,ROW,COL MAX. CHANGE LAYER,ROW,COL MAX. CHANGE LAYER,ROW,COL MAX. CHANGE LAYER,ROW,COL MAX. CHANGE LAYER,ROW,COL
 ------------------------------------------------------------------------------------------------------------------------------------
    0.000     (  1,  1,  1)   0.000     (  1,  1,  1)


                     STREAM MASS BUDGETS AT END OF TRANSPORT STEP  250, TIME STEP    1, STRESS PERIOD    3 FOR COMPONENT   1
                     -------------------------------------------------------------------------------------------------------

                                         CUMULATIVE MASS [M]                                     MASS FOR THIS TIME STEP [M]
                                         -------------------                                    --------------
                      STREAM DEPLETION =   1924.824                          STREAM DEPLETION =  0.3348232E-03
                      INFLOW TO STREAM =   5035.511                          INFLOW TO STREAM =   8.325000    
                          GW TO STREAM =   479.5420                              GW TO STREAM =  0.9990391    
                         PRECIPITATION =   0.000000                             PRECIPITATION =   0.000000    
                                RUNOFF =   0.000000                                    RUNOFF =   0.000000    
                CONSTANT CONCENTRATION =   0.000000                    CONSTANT CONCENTRATION =   0.000000    
                             MASS GAIN =   0.000000                                 MASS GAIN =   0.000000    
                                         -------------------                                    --------------
                              TOTAL IN =   7439.877                                  TOTAL IN =   9.324373    

                   STREAM ACCUMULATION =   1924.828                       STREAM ACCUMULATION =  0.2210821E-05
                        STREAM OUTFLOW =   5515.041                            STREAM OUTFLOW =   9.324373    
                          STREAM TO GW =   0.000000                              STREAM TO GW =   0.000000    
                CONSTANT CONCENTRATION =   0.000000                    CONSTANT CONCENTRATION =   0.000000    
                           EVAPORATION =   0.000000                               EVAPORATION =   0.000000    
                             MASS LOSS =   0.000000                                 MASS LOSS =   0.000000    
                                         -------------------                                    --------------
                             TOTAL OUT =   7439.869                                 TOTAL OUT =   9.324375    

                        NET (IN - OUT) =  0.8300781E-02                        NET (IN - OUT) = -0.1907349E-05
                 DISCREPANCY (PERCENT) =  0.1115715E-03                 DISCREPANCY (PERCENT) = -0.2045551E-04
                                              FLOW ERR (QIN-QOUT-DV) = -0.9536743E-06 [L3/T]




 >>>>>>>>>>>>>>>>>>>>>>>>>>>>>>>>>>>>>>>>>>>>>>>>>>>>>>>FOR COMPONENT NO. 01<<<<<<<<<<<<<<<<<<<<<<<<<<<<<<<<<<<<<<<<<<<<<<<<<<<<<<<


                                            -------------------------------------------
                                                      TRANSPORT STEP NO.  250
                                            -------------------------------------------

 TOTAL ELAPSED TIME SINCE BEGINNING OF SIMULATION =   86400.00    D   
 .....................................................................

                     CUMULATIVE MASS BUDGETS AT END OF TRANSPORT STEP  250, TIME STEP    1, STRESS PERIOD    3
                     -----------------------------------------------------------------------------------------

                                                             IN                           OUT
                                                      ----------------             ----------------
                               CONSTANT CONCENTRATION:    0.000000                    0.000000    
                                        CONSTANT HEAD:    1078.472                   -598.9361    
                                               STREAM:    0.000000                   -479.5420    
                               MASS STOR (FLOW MODEL):   0.5161509E-02              -0.6986623E-07
                                MASS STORAGE (SOLUTE):    0.000000                    0.000000    
                            ---------------------------------------------------------------------------
                                              [TOTAL]:    1078.477     KG            -1078.478     KG  

                                                          NET (IN - OUT):  -0.1098633E-02
                                                   DISCREPANCY (PERCENT):  -0.1018689E-03
  ----- 
 | M T |
 | 3 D | END OF MODEL OUTPUT
  ----- 
