                                   MODFLOW 6
                U.S. GEOLOGICAL SURVEY MODULAR HYDROLOGIC MODEL
                          GROUNDWATER FLOW MODEL (GWF)
                            VERSION 6.0.3 08/09/2018

   MODFLOW 6 compiled Aug 09 2018 13:40:32 with IFORT compiler (ver. 18.0.3)

This software has been approved for release by the U.S. Geological 
Survey (USGS). Although the software has been subjected to rigorous 
review, the USGS reserves the right to update the software as needed 
pursuant to further analysis and review. No warranty, expressed or 
implied, is made by the USGS or the U.S. Government as to the 
functionality of the software and related material nor shall the 
fact of release constitute any such warranty. Furthermore, the 
software is released on condition that neither the USGS nor the U.S. 
Government shall be held liable for any damages resulting from its 
authorized or unauthorized use. Also refer to the USGS Water 
Resources Software User Rights Notice for complete use, copyright, 
and distribution information.


MODFLOW was compiled using uniform precision.
Precision of REAL variables: 15


 OPENED tri_model_cnst.disv
 FILE TYPE:DISV6                  UNIT 1005   STATUS:OLD                 
 FORMAT:FORMATTED              ACCESS:SEQUENTIAL          
 ACTION:READ                


 OPENED tri_model.ic
 FILE TYPE:IC6                    UNIT 1006   STATUS:OLD                 
 FORMAT:FORMATTED              ACCESS:SEQUENTIAL          
 ACTION:READ                


 OPENED tri_model.npf
 FILE TYPE:NPF6                   UNIT 1007   STATUS:OLD                 
 FORMAT:FORMATTED              ACCESS:SEQUENTIAL          
 ACTION:READ                


 OPENED tri_model_left.chd
 FILE TYPE:CHD6                   UNIT 1008   STATUS:OLD                 
 FORMAT:FORMATTED              ACCESS:SEQUENTIAL          
 ACTION:READ                


 OPENED tri_model_right.chd
 FILE TYPE:CHD6                   UNIT 1009   STATUS:OLD                 
 FORMAT:FORMATTED              ACCESS:SEQUENTIAL          
 ACTION:READ                


 OPENED tri_model.oc
 FILE TYPE:OC6                    UNIT 1010   STATUS:OLD                 
 FORMAT:FORMATTED              ACCESS:SEQUENTIAL          
 ACTION:READ                


 DISV -- VERTEX GRID DISCRETIZATION PACKAGE, VERSION 1 : 12/23/2015 - INPUT READ FROM UNIT 1005



 PROCESSING DISCRETIZATION OPTIONS
   MODEL LENGTH UNIT IS UNDEFINED
 END OF DISCRETIZATION OPTIONS

 PROCESSING DISCRETIZATION DIMENSIONS
   NCPL = 200
   NLAY = 4
   NVERT = 121
 END OF DISCRETIZATION DIMENSIONS

 PROCESSING GRIDDATA

 TOP ELEVATION OF LAYER 1 =   2.000000    

   MODEL LAYER BOTTOM EL. =   1.500000     FOR LAYER 1

   MODEL LAYER BOTTOM EL. =   1.000000     FOR LAYER 2

   MODEL LAYER BOTTOM EL. =  0.5000000     FOR LAYER 3

   MODEL LAYER BOTTOM EL. =   0.000000     FOR LAYER 4

                  IDOMAIN = 1 FOR LAYER 2

                  IDOMAIN = 1 FOR LAYER 3

                  IDOMAIN = 1 FOR LAYER 4
 END PROCESSING GRIDDATA

 THE SPECIFIED IDOMAIN RESULTS IN A REDUCED NUMBER OF CELLS.
 NUMBER OF USER NODES:     800
 NUMBER OF NODES IN SOLUTION:     784



 PROCESSING VERTICES
   SUCCESSFULLY READ 121 (X,Y) COORDINATES
   MINIMUM X COORDINATE =     0.00000000000000    
   MAXIMUM X COORDINATE =     10.0000000000000    
   MINIMUM Y COORDINATE =     0.00000000000000    
   MAXIMUM Y COORDINATE =     10.0000000000000    
 END PROCESSING VERTICES

 PROCESSING CELL2D
   SUCCESSFULLY READ 200 CELL2D INFORMATION ENTRIES
   MINIMUM X CELL CENTER =    0.330000000000000    
   MAXIMUM X CELL CENTER =     9.67000000000000    
   MINIMUM Y CELL CENTER =    0.330000000000000    
   MAXIMUM Y CELL CENTER =     9.67000000000000    
   MAXIMUM NUMBER OF CELL2D VERTICES IS 3 FOR CELL 1
 END PROCESSING VERTICES

 NPF -- NODE PROPERTY FLOW PACKAGE, VERSION 1, 3/30/2015 INPUT READ FROM UNIT 1007


 PROCESSING NPF OPTIONS
    CELL-BY-CELL FLOW INFORMATION WILL BE PRINTED TO LISTING FILE WHENEVER ICBCFL IS NOT ZERO.
    CELL-BY-CELL FLOW INFORMATION WILL BE SAVED TO BINARY FILE WHENEVER ICBCFL IS NOT ZERO.
 END OF NPF OPTIONS

 CHD   -- CHD PACKAGE, VERSION 8, 2/22/2014 INPUT READ FROM UNIT 1008

 PROCESSING CHD OPTIONS
    LISTS OF CHD CELLS WILL BE PRINTED.
    CHD FLOWS WILL BE PRINTED TO LISTING FILE.
    FLOWS WILL BE SAVED TO BUDGET FILE SPECIFIED IN OUTPUT CONTROL
 END OF CHD OPTIONS

 PROCESSING CHD DIMENSIONS
    MAXBOUND =      10
 END OF CHD DIMENSIONS

 CHD   -- CHD PACKAGE, VERSION 8, 2/22/2014 INPUT READ FROM UNIT 1009

 PROCESSING CHD OPTIONS
    LISTS OF CHD CELLS WILL BE PRINTED.
    CHD FLOWS WILL BE PRINTED TO LISTING FILE.
    FLOWS WILL BE SAVED TO BUDGET FILE SPECIFIED IN OUTPUT CONTROL
 END OF CHD OPTIONS

 PROCESSING CHD DIMENSIONS
    MAXBOUND =      10
 END OF CHD DIMENSIONS

 IC -- INITIAL CONDITIONS PACKAGE, VERSION 8, 3/28/2015 INPUT READ FROM UNIT 1006
 # Basic package file for MODFLOW, generated by Flopy.
 PROCESSING IC OPTIONS
 END OF IC OPTIONS
 PROCESSING GRIDDATA

     INITIAL HEAD =   1.000000    
 END PROCESSING GRIDDATA
 #
 PROCESSING GRIDDATA
 #icelltype(nodes) is 0:confined, 1:convertible, 4:upstream?

                ICELLTYPE = 0
 #	

                        K =   1.000000    

                      K33 =   1.000000    

                      K22 =   1.000000    
 END PROCESSING GRIDDATA
    BINARY GRID INFORMATION WILL BE WRITTEN TO:
      UNIT NUMBER: 1012
      FILE NAME: C:\Users\jlarsen\Desktop\triangles\tri_model_cnst.disv.grb

 OPENED C:\Users\jlarsen\Desktop\triangles\tri_model_cnst.disv.grb
 FILE TYPE:DATA(BINARY)   UNIT 1012   STATUS:REPLACE             
 FORMAT:UNFORMATTED            ACCESS:STREAM              
 ACTION:READWRITE           

      THE LAST TIME STEP WILL BE PRINTED
      THE LAST TIME STEP WILL BE PRINTED
 PROCESSING OC OPTIONS
    HEAD INFORMATION WILL BE WRITTEN TO:
      UNIT NUMBER: 1013
      FILE NAME: tri_model.hds

 OPENED tri_model.hds
 FILE TYPE:DATA(BINARY)   UNIT 1013   STATUS:REPLACE             
 FORMAT:UNFORMATTED            ACCESS:STREAM              
 ACTION:READWRITE           

    BUDGET INFORMATION WILL BE WRITTEN TO:
      UNIT NUMBER: 1014
      FILE NAME: tri_model.cbc

 OPENED tri_model.cbc
 FILE TYPE:DATA(BINARY)   UNIT 1014   STATUS:REPLACE             
 FORMAT:UNFORMATTED            ACCESS:STREAM              
 ACTION:READWRITE           

 END OF OC OPTIONS

 BEGIN READING OUTPUT CONTROL FOR STRESS PERIOD 1
      ALL TIME STEPS WILL BE PRINTED
      ALL TIME STEPS WILL BE SAVED
      ALL TIME STEPS WILL BE PRINTED
      ALL TIME STEPS WILL BE SAVED

 END READING OUTPUT CONTROL FOR STRESS PERIOD 1
 #layer 1

 CHD NO.  LAYER CELL2D            HEAD         
 ----------------------------------------------
      1      1      1       10.00    
      2      1     21       10.00    
      3      1     41       10.00    
      4      1     61       10.00    
      5      1     81       10.00    
      6      1    101       10.00    
      7      1    121       10.00    
      8      1    141       10.00    
      9      1    161       10.00    
     10      1    181       10.00    
 #layer 1

 CHD NO.  LAYER CELL2D            HEAD         
 ----------------------------------------------
      1      1     20       5.000    
      2      1     40       5.000    
      3      1     60       5.000    
      4      1     80       5.000    
      5      1    100       5.000    
      6      1    120       5.000    
      7      1    140       5.000    
      8      1    160       5.000    
      9      1    180       5.000    
     10      1    200       5.000    
 UBDSV1 SAVING     FLOW-JA-FACE ON UNIT   1014 AT TIME STEP      1, STRESS PERIOD      1
 UBDSV06 SAVING              CHD IN MODEL GWF_1            PACKAGE GWF_1           CONNECTED TO MODEL GWF_1            PACKAGE CHD_LEFT         ON UNIT   1014 AT TIME STEP      1, STRESS PERIOD      1

              CHD (CHD_LEFT)   PERIOD 1   STEP 1
 BOUNDARY        1  CELL                (1,1)   RATE    0.364687    
 BOUNDARY        2  CELL               (1,21)   RATE    0.626242    
 BOUNDARY        3  CELL               (1,41)   RATE    0.771740    
 BOUNDARY        4  CELL               (1,61)   RATE    0.843330    
 BOUNDARY        5  CELL               (1,81)   RATE    0.904948    
 BOUNDARY        6  CELL              (1,101)   RATE    0.963223    
 BOUNDARY        7  CELL              (1,121)   RATE     1.02342    
 BOUNDARY        8  CELL              (1,141)   RATE     1.09278    
 BOUNDARY        9  CELL              (1,161)   RATE     1.18556    
 BOUNDARY       10  CELL              (1,181)   RATE     1.48673    
 UBDSV06 SAVING              CHD IN MODEL GWF_1            PACKAGE GWF_1           CONNECTED TO MODEL GWF_1            PACKAGE CHD_RIGHT        ON UNIT   1014 AT TIME STEP      1, STRESS PERIOD      1

              CHD (CHD_RIGHT)   PERIOD 1   STEP 1
 BOUNDARY        1  CELL               (1,20)   RATE    -1.17595    
 BOUNDARY        2  CELL               (1,40)   RATE    -1.20355    
 BOUNDARY        3  CELL               (1,60)   RATE    -1.10830    
 BOUNDARY        4  CELL               (1,80)   RATE    -1.03679    
 BOUNDARY        5  CELL              (1,100)   RATE   -0.975501    
 BOUNDARY        6  CELL              (1,120)   RATE   -0.916972    
 BOUNDARY        7  CELL              (1,140)   RATE   -0.855979    
 BOUNDARY        8  CELL              (1,160)   RATE   -0.787857    
 BOUNDARY        9  CELL              (1,180)   RATE   -0.706138    
 BOUNDARY       10  CELL              (1,200)   RATE   -0.495565    

    CALCULATED INTERCELL FLOW FOR PERIOD 1 STEP 1
(1,1): (1,2) -0.134525 (2,1) -0.230162
(1,2): (1,1) 0.134525 (1,21) 6.930057E-02 (2,2) -0.203838
(1,19): (1,20) -0.396185 (2,19) 0.396181
(1,20): (1,19) 0.396185 (1,39) 0.253478 (2,20) 0.526287
(1,21): (1,2) -6.930057E-02 (1,22) -0.283004 (2,21) -0.273937
(1,22): (1,21) 0.283004 (1,23) -0.268103 (1,41) 0.145790 (2,22) -0.160704
(1,23): (1,22) 0.268103 (1,24) -0.204233 (2,23) -6.385592E-02
(1,24): (1,23) 0.204233 (1,25) -0.217036 (1,43) 5.025058E-02 (2,24) -3.745136E-02
(1,25): (1,24) 0.217036 (1,26) -0.195998 (2,25) -2.103396E-02
(1,26): (1,25) 0.195998 (1,27) -0.213498 (1,45) 2.936428E-02 (2,26) -1.186656E-02
(1,27): (1,26) 0.213498 (1,28) -0.203809 (2,27) -9.685884E-03
(1,28): (1,27) 0.203809 (1,29) -0.220689 (1,47) 2.210849E-02 (2,28) -5.228410E-03
(1,29): (1,28) 0.220689 (1,30) -0.214515 (2,29) -6.174299E-03
(1,30): (1,29) 0.214515 (1,31) -0.230383 (1,49) 1.910740E-02 (2,30) -3.237079E-03
(1,31): (1,30) 0.230383 (1,32) -0.225472 (2,31) -4.912368E-03
(1,32): (1,31) 0.225472 (1,33) -0.241796 (1,51) 1.868355E-02 (2,32) -2.355912E-03
(1,33): (1,32) 0.241796 (1,34) -0.237996 (2,33) -3.800534E-03
(1,34): (1,33) 0.237996 (1,35) -0.258853 (1,53) 2.141829E-02 (2,34) -5.596254E-04
(1,35): (1,34) 0.258853 (1,36) -0.259773 (2,35) 9.171324E-04
(1,36): (1,35) 0.259773 (1,37) -0.300137 (1,55) 3.168983E-02 (2,36) 8.674185E-03
(1,37): (1,36) 0.300137 (1,38) -0.329176 (2,37) 2.903449E-02
(1,38): (1,37) 0.329176 (1,39) -0.474281 (1,57) 7.414025E-02 (2,38) 7.096345E-02
(1,39): (1,20) -0.253478 (1,38) 0.474281 (1,40) -0.492045 (2,39) 0.271243
(1,40): (1,39) 0.492045 (1,59) 0.231376 (2,40) 0.480130
(1,41): (1,22) -0.145790 (1,42) -0.317307 (2,41) -0.308643
(1,42): (1,41) 0.317307 (1,43) -0.305393 (1,61) 0.163461 (2,42) -0.175388
(1,43): (1,24) -5.025058E-02 (1,42) 0.305393 (1,44) -0.202525 (2,43) -5.261632E-02
(1,44): (1,43) 0.202525 (1,45) -0.234560 (1,63) 6.526566E-02 (2,44) -3.323031E-02
(1,45): (1,26) -2.936428E-02 (1,44) 0.234560 (1,46) -0.193023 (2,45) -1.217174E-02
(1,46): (1,45) 0.193023 (1,47) -0.226310 (1,65) 4.127753E-02 (2,46) -7.986404E-03
(1,47): (1,28) -2.210849E-02 (1,46) 0.226310 (1,48) -0.200626 (2,47) -3.574977E-03
(1,48): (1,47) 0.200626 (1,49) -0.230845 (1,67) 3.253380E-02 (2,48) -2.312080E-03
(1,49): (1,30) -1.910740E-02 (1,48) 0.230845 (1,50) -0.210348 (2,49) -1.390687E-03
(1,50): (1,49) 0.210348 (1,51) -0.238598 (1,69) 2.904601E-02 (2,50) -7.950218E-04
(1,51): (1,32) -1.868355E-02 (1,50) 0.238598 (1,52) -0.219379 (2,51) -5.371227E-04
(1,52): (1,51) 0.219379 (1,53) -0.248652 (1,71) 2.919919E-02 (2,52) 7.434767E-05
(1,53): (1,34) -2.141829E-02 (1,52) 0.248652 (1,54) -0.228272 (2,53) 1.036331E-03
(1,54): (1,53) 0.228272 (1,55) -0.264809 (1,73) 3.398491E-02 (2,54) 2.549901E-03
(1,55): (1,36) -3.168983E-02 (1,54) 0.264809 (1,56) -0.241172 (2,55) 8.051250E-03
(1,56): (1,55) 0.241172 (1,57) -0.303022 (1,75) 4.780808E-02 (2,56) 1.403726E-02
(1,57): (1,38) -7.414025E-02 (1,56) 0.303022 (1,58) -0.273017 (2,57) 4.413229E-02
(1,58): (1,57) 0.273017 (1,59) -0.429878 (1,77) 8.485263E-02 (2,58) 7.200717E-02
(1,59): (1,40) -0.231376 (1,58) 0.429878 (1,60) -0.449142 (2,59) 0.250644
(1,60): (1,59) 0.449142 (1,79) 0.215971 (2,60) 0.443187
(1,61): (1,42) -0.163461 (1,62) -0.343594 (2,61) -0.336275
(1,62): (1,61) 0.343594 (1,63) -0.330916 (1,81) 0.177003 (2,62) -0.189694
(1,63): (1,44) -6.526566E-02 (1,62) 0.330916 (1,64) -0.210379 (2,63) -5.526956E-02
(1,64): (1,63) 0.210379 (1,65) -0.249607 (1,83) 7.417182E-02 (2,64) -3.494353E-02
(1,65): (1,46) -4.127753E-02 (1,64) 0.249607 (1,66) -0.196490 (2,65) -1.183787E-02
(1,66): (1,65) 0.196490 (1,67) -0.237184 (1,85) 4.859724E-02 (2,66) -7.900419E-03
(1,67): (1,48) -3.253380E-02 (1,66) 0.237184 (1,68) -0.201727 (2,67) -2.921546E-03
(1,68): (1,67) 0.201727 (1,69) -0.238774 (1,87) 3.901081E-02 (2,68) -1.962560E-03
(1,69): (1,50) -2.904601E-02 (1,68) 0.238774 (1,70) -0.208990 (2,69) -7.380221E-04
(1,70): (1,69) 0.208990 (1,71) -0.243797 (1,89) 3.520797E-02 (2,70) -4.011205E-04
(1,71): (1,52) -2.919919E-02 (1,70) 0.243797 (1,72) -0.214756 (2,71) 1.593501E-04
(1,72): (1,71) 0.214756 (1,73) -0.250829 (1,91) 3.553479E-02 (2,72) 5.378868E-04
(1,73): (1,54) -3.398491E-02 (1,72) 0.250829 (1,74) -0.218776 (2,73) 1.930855E-03
(1,74): (1,73) 0.218776 (1,75) -0.262523 (1,93) 4.061654E-02 (2,74) 3.129593E-03
(1,75): (1,56) -4.780808E-02 (1,74) 0.262523 (1,76) -0.223897 (2,75) 9.177251E-03
(1,76): (1,75) 0.223897 (1,77) -0.291282 (1,95) 5.327995E-02 (2,76) 1.410001E-02
(1,77): (1,58) -8.485263E-02 (1,76) 0.291282 (1,78) -0.249120 (2,77) 4.268687E-02
(1,78): (1,77) 0.249120 (1,79) -0.401801 (1,97) 8.493221E-02 (2,78) 6.774774E-02
(1,79): (1,60) -0.215971 (1,78) 0.401801 (1,80) -0.419238 (2,79) 0.233413
(1,80): (1,79) 0.419238 (1,99) 0.203277 (2,80) 0.414275
(1,81): (1,62) -0.177003 (1,82) -0.367008 (2,81) -0.360937
(1,82): (1,81) 0.367008 (1,83) -0.353060 (1,101) 0.189065 (2,82) -0.203025
(1,83): (1,64) -7.417182E-02 (1,82) 0.353060 (1,84) -0.219913 (2,83) -5.896677E-02
(1,84): (1,83) 0.219913 (1,85) -0.263115 (1,103) 8.042679E-02 (2,84) -3.722497E-02
(1,85): (1,66) -4.859724E-02 (1,84) 0.263115 (1,86) -0.202061 (2,85) -1.245411E-02
(1,86): (1,85) 0.202061 (1,87) -0.246599 (1,105) 5.285846E-02 (2,86) -8.318612E-03
(1,87): (1,68) -3.901081E-02 (1,86) 0.246599 (1,88) -0.204632 (2,87) -2.955159E-03
(1,88): (1,87) 0.204632 (1,89) -0.244823 (1,107) 4.218296E-02 (2,88) -1.992627E-03
(1,89): (1,70) -3.520797E-02 (1,88) 0.244823 (1,90) -0.208972 (2,89) -6.428251E-04
(1,90): (1,89) 0.208972 (1,91) -0.246449 (1,109) 3.781631E-02 (2,90) -3.391649E-04
(1,91): (1,72) -3.553479E-02 (1,90) 0.246449 (1,92) -0.211209 (2,91) 2.952886E-04
(1,92): (1,91) 0.211209 (1,93) -0.249645 (1,111) 3.781836E-02 (2,92) 6.166263E-04
(1,93): (1,74) -4.061654E-02 (1,92) 0.249645 (1,94) -0.211080 (2,93) 2.049132E-03
(1,94): (1,93) 0.211080 (1,95) -0.256463 (1,113) 4.228124E-02 (2,94) 3.099298E-03
(1,95): (1,76) -5.327995E-02 (1,94) 0.256463 (1,96) -0.212076 (2,95) 8.888405E-03
(1,96): (1,95) 0.212076 (1,97) -0.278712 (1,115) 5.326702E-02 (2,96) 1.336709E-02
(1,97): (1,78) -8.493221E-02 (1,96) 0.278712 (1,98) -0.233917 (2,97) 4.013226E-02
(1,98): (1,97) 0.233917 (1,99) -0.378925 (1,117) 8.141698E-02 (2,98) 6.359119E-02
(1,99): (1,80) -0.203277 (1,98) 0.378925 (1,100) -0.394597 (2,99) 0.218957
(1,100): (1,99) 0.394597 (1,119) 0.191503 (2,100) 0.389401
(1,101): (1,82) -0.189065 (1,102) -0.389675 (2,101) -0.384483
(1,102): (1,101) 0.389675 (1,103) -0.374245 (1,121) 0.200742 (2,102) -0.216185
(1,103): (1,84) -8.042679E-02 (1,102) 0.374245 (1,104) -0.231001 (2,103) -6.280634E-02
(1,104): (1,103) 0.231001 (1,105) -0.275775 (1,123) 8.443629E-02 (2,104) -3.966443E-02
(1,105): (1,86) -5.285846E-02 (1,104) 0.275775 (1,106) -0.209671 (2,105) -1.324355E-02
(1,106): (1,105) 0.209671 (1,107) -0.254679 (1,125) 5.385457E-02 (2,106) -8.846750E-03
(1,107): (1,88) -4.218296E-02 (1,106) 0.254679 (1,108) -0.209383 (2,107) -3.113951E-03
(1,108): (1,107) 0.209383 (1,109) -0.248977 (1,127) 4.168825E-02 (2,108) -2.095684E-03
(1,109): (1,90) -3.781631E-02 (1,108) 0.248977 (1,110) -0.210507 (2,109) -6.556529E-04
(1,110): (1,109) 0.210507 (1,111) -0.246809 (1,129) 3.665070E-02 (2,110) -3.482228E-04
(1,111): (1,92) -3.781836E-02 (1,110) 0.246809 (1,112) -0.209290 (2,111) 3.019469E-04
(1,112): (1,111) 0.209290 (1,113) -0.246104 (1,131) 3.621432E-02 (2,112) 5.986988E-04
(1,113): (1,94) -4.228124E-02 (1,112) 0.246104 (1,114) -0.205797 (2,113) 1.973090E-03
(1,114): (1,113) 0.205797 (1,115) -0.248712 (1,133) 3.997346E-02 (2,114) 2.938987E-03
(1,115): (1,96) -5.326702E-02 (1,114) 0.248712 (1,116) -0.203830 (2,115) 8.382975E-03
(1,116): (1,115) 0.203830 (1,117) -0.266061 (1,135) 4.966875E-02 (2,116) 1.256112E-02
(1,117): (1,98) -8.141698E-02 (1,116) 0.266061 (1,118) -0.222321 (2,117) 3.767227E-02
(1,118): (1,117) 0.222321 (1,119) -0.357587 (1,137) 7.557549E-02 (2,118) 5.969218E-02
(1,119): (1,100) -0.191503 (1,118) 0.357587 (1,120) -0.371741 (2,119) 0.205670
(1,120): (1,119) 0.371741 (1,139) 0.179514 (2,120) 0.365716
(1,121): (1,102) -0.200742 (1,122) -0.413715 (2,121) -0.408963
(1,122): (1,121) 0.413715 (1,123) -0.396425 (1,141) 0.213126 (2,122) -0.230428
(1,123): (1,104) -8.443629E-02 (1,122) 0.396425 (1,124) -0.244993 (2,123) -6.698595E-02
(1,124): (1,123) 0.244993 (1,125) -0.288160 (1,143) 8.554531E-02 (2,124) -4.238107E-02
(1,125): (1,106) -5.385457E-02 (1,124) 0.288160 (1,126) -0.220188 (2,125) -1.411674E-02
(1,126): (1,125) 0.220188 (1,127) -0.261279 (1,145) 5.048309E-02 (2,126) -9.393210E-03
(1,127): (1,108) -4.168825E-02 (1,126) 0.261279 (1,128) -0.216312 (2,127) -3.283431E-03
(1,128): (1,127) 0.216312 (1,129) -0.251024 (1,147) 3.689163E-02 (2,128) -2.180344E-03
(1,129): (1,110) -3.665070E-02 (1,128) 0.251024 (1,130) -0.213697 (2,129) -6.791036E-04
(1,130): (1,129) 0.213697 (1,131) -0.244975 (1,149) 3.163588E-02 (2,130) -3.579101E-04
(1,131): (1,112) -3.621432E-02 (1,130) 0.244975 (1,132) -0.209041 (2,131) 2.817009E-04
(1,132): (1,131) 0.209041 (1,133) -0.240674 (1,151) 3.106649E-02 (2,132) 5.642306E-04
(1,133): (1,114) -3.997346E-02 (1,132) 0.240674 (1,134) -0.202559 (2,133) 1.859248E-03
(1,134): (1,133) 0.202559 (1,135) -0.239671 (1,153) 3.434865E-02 (2,134) 2.760602E-03
(1,135): (1,116) -4.966875E-02 (1,134) 0.239671 (1,136) -0.197861 (2,135) 7.858924E-03
(1,136): (1,135) 0.197861 (1,137) -0.252755 (1,155) 4.313272E-02 (2,136) 1.175908E-02
(1,137): (1,118) -7.557549E-02 (1,136) 0.252755 (1,138) -0.212440 (2,137) 3.525773E-02
(1,138): (1,137) 0.212440 (1,139) -0.335712 (1,157) 6.749255E-02 (2,138) 5.578147E-02
(1,139): (1,120) -0.179514 (1,138) 0.335712 (1,140) -0.348469 (2,139) 0.192289
(1,140): (1,139) 0.348469 (1,159) 0.166378 (2,140) 0.341131
(1,141): (1,122) -0.213126 (1,142) -0.442298 (2,141) -0.437353
(1,142): (1,141) 0.442298 (1,143) -0.422363 (1,161) 0.227851 (2,142) -0.247799
(1,143): (1,124) -8.554531E-02 (1,142) 0.422363 (1,144) -0.264944 (2,143) -7.186475E-02
(1,144): (1,143) 0.264944 (1,145) -0.300166 (1,163) 8.055676E-02 (2,144) -4.533882E-02
(1,145): (1,126) -5.048309E-02 (1,144) 0.300166 (1,146) -0.234761 (2,145) -1.492002E-02
(1,146): (1,145) 0.234761 (1,147) -0.265366 (1,165) 4.026654E-02 (2,146) -9.662679E-03
(1,147): (1,128) -3.689163E-02 (1,146) 0.265366 (1,148) -0.225143 (2,147) -3.336351E-03
(1,148): (1,147) 0.225143 (1,149) -0.250384 (1,167) 2.737371E-02 (2,148) -2.132766E-03
(1,149): (1,130) -3.163588E-02 (1,148) 0.250384 (1,150) -0.218095 (2,149) -6.587535E-04
(1,150): (1,149) 0.218095 (1,151) -0.240880 (1,169) 2.311530E-02 (2,150) -3.282187E-04
(1,151): (1,132) -3.106649E-02 (1,150) 0.240880 (1,152) -0.210089 (2,151) 2.725002E-04
(1,152): (1,151) 0.210089 (1,153) -0.233513 (1,171) 2.288177E-02 (2,152) 5.426692E-04
(1,153): (1,134) -3.434865E-02 (1,152) 0.233513 (1,154) -0.200917 (2,153) 1.751815E-03
(1,154): (1,153) 0.200917 (1,155) -0.229313 (1,173) 2.579697E-02 (2,154) 2.598418E-03
(1,155): (1,136) -4.313272E-02 (1,154) 0.229313 (1,156) -0.193526 (2,155) 7.347202E-03
(1,156): (1,155) 0.193526 (1,157) -0.238139 (1,175) 3.363895E-02 (2,156) 1.097357E-02
(1,157): (1,138) -6.749255E-02 (1,156) 0.238139 (1,158) -0.203421 (2,157) 3.277283E-02
(1,158): (1,157) 0.203421 (1,159) -0.311549 (1,177) 5.646309E-02 (2,158) 5.166730E-02
(1,159): (1,140) -0.166378 (1,158) 0.311549 (1,160) -0.322970 (2,159) 0.177820
(1,160): (1,159) 0.322970 (1,179) 0.150996 (2,160) 0.313892
(1,161): (1,142) -0.227851 (1,162) -0.482293 (2,161) -0.475420
(1,162): (1,161) 0.482293 (1,163) -0.457690 (1,181) 0.248454 (2,162) -0.273070
(1,163): (1,144) -8.055676E-02 (1,162) 0.457690 (1,164) -0.300163 (2,163) -7.696187E-02
(1,164): (1,163) 0.300163 (1,165) -0.306764 (1,183) 5.197347E-02 (2,164) -4.537432E-02
(1,165): (1,146) -4.026654E-02 (1,164) 0.306764 (1,166) -0.251851 (2,165) -1.464841E-02
(1,166): (1,165) 0.251851 (1,167) -0.264500 (1,185) 2.149585E-02 (2,166) -8.848355E-03
(1,167): (1,148) -2.737371E-02 (1,166) 0.264500 (1,168) -0.234097 (2,167) -3.028638E-03
(1,168): (1,167) 0.234097 (1,169) -0.246399 (1,187) 1.411882E-02 (2,168) -1.816807E-03
(1,169): (1,150) -2.311530E-02 (1,168) 0.246399 (1,170) -0.222737 (2,169) -5.481873E-04
(1,170): (1,169) 0.222737 (1,171) -0.234598 (1,189) 1.209622E-02 (2,170) -2.347663E-04
(1,171): (1,152) -2.288177E-02 (1,170) 0.234598 (1,172) -0.212013 (2,171) 2.942806E-04
(1,172): (1,171) 0.212013 (1,173) -0.224882 (1,191) 1.231123E-02 (2,172) 5.592514E-04
(1,173): (1,154) -2.579697E-02 (1,172) 0.224882 (1,174) -0.200778 (2,173) 1.692373E-03
(1,174): (1,173) 0.200778 (1,175) -0.217736 (1,193) 1.443599E-02 (2,174) 2.524638E-03
(1,175): (1,156) -3.363895E-02 (1,174) 0.217736 (1,176) -0.191038 (2,175) 6.944990E-03
(1,176): (1,175) 0.191038 (1,177) -0.221693 (1,195) 2.026004E-02 (2,176) 1.039784E-02
(1,177): (1,158) -5.646309E-02 (1,176) 0.221693 (1,178) -0.195589 (2,177) 3.035789E-02
(1,178): (1,177) 0.195589 (1,179) -0.282636 (1,197) 3.939666E-02 (2,178) 4.765473E-02
(1,179): (1,160) -0.150996 (1,178) 0.282636 (1,180) -0.293110 (2,179) 0.161485
(1,180): (1,179) 0.293110 (1,199) 0.130860 (2,180) 0.282168
(1,181): (1,162) -0.248454 (1,182) -0.694240 (2,181) -0.544039
(1,182): (1,181) 0.694240 (1,183) -0.451161 (2,182) -0.243087
(1,183): (1,164) -5.197347E-02 (1,182) 0.451161 (1,184) -0.331412 (2,183) -6.777040E-02
(1,184): (1,183) 0.331412 (1,185) -0.296256 (2,184) -3.515505E-02
(1,185): (1,166) -2.149585E-02 (1,184) 0.296256 (1,186) -0.263258 (2,185) -1.150271E-02
(1,186): (1,185) 0.263258 (1,187) -0.256855 (2,186) -6.405319E-03
(1,187): (1,168) -1.411882E-02 (1,186) 0.256855 (1,188) -0.240509 (2,187) -2.226263E-03
(1,188): (1,187) 0.240509 (1,189) -0.239266 (2,188) -1.241971E-03
(1,189): (1,170) -1.209622E-02 (1,188) 0.239266 (1,190) -0.226828 (2,189) -3.420040E-04
(1,190): (1,189) 0.226828 (1,191) -0.226751 (2,190) -7.337875E-05
(1,191): (1,172) -1.231123E-02 (1,190) 0.226751 (1,192) -0.214828 (2,191) 3.873195E-04
(1,192): (1,191) 0.214828 (1,193) -0.215519 (2,192) 6.949492E-04
(1,193): (1,174) -1.443599E-02 (1,192) 0.215519 (1,194) -0.202929 (2,193) 1.844314E-03
(1,194): (1,193) 0.202929 (1,195) -0.205786 (2,194) 2.862772E-03
(1,195): (1,176) -2.026004E-02 (1,194) 0.205786 (1,196) -0.192770 (2,195) 7.243120E-03
(1,196): (1,195) 0.192770 (1,197) -0.204009 (2,196) 1.124166E-02
(1,197): (1,178) -3.939666E-02 (1,196) 0.204009 (1,198) -0.194431 (2,197) 2.981930E-02
(1,198): (1,197) 0.194431 (1,199) -0.242007 (2,198) 4.757693E-02
(1,199): (1,180) -0.130860 (1,198) 0.242007 (1,200) -0.254023 (2,199) 0.142885
(1,200): (1,199) 0.254023 (2,200) 0.241542
(2,1): (1,1) 0.230162 (2,2) -9.581273E-02 (3,1) -0.134355
(2,2): (1,2) 0.203838 (2,1) 9.581273E-02 (2,3) -0.197519 (2,21) 1.619517E-02 (3,2) -0.118321
(2,3): (2,2) 0.197519 (2,4) -0.162888 (3,3) -3.462767E-02
(2,4): (2,3) 0.162888 (2,5) -0.183415 (2,23) 4.288558E-02 (3,4) -2.236143E-02
(2,5): (2,4) 0.183415 (2,6) -0.175788 (3,5) -7.617490E-03
(2,6): (2,5) 0.175788 (2,7) -0.196849 (2,25) 2.705140E-02 (3,6) -5.988796E-03
(2,7): (2,6) 0.196849 (2,8) -0.194616 (3,7) -2.226262E-03
(2,8): (2,7) 0.194616 (2,9) -0.210894 (2,27) 1.828725E-02 (3,8) -2.005016E-03
(2,9): (2,8) 0.210894 (2,10) -0.210060 (3,9) -8.311124E-04
(2,10): (2,9) 0.210060 (2,11) -0.223542 (2,29) 1.437243E-02 (3,10) -8.847211E-04
(2,11): (2,10) 0.223542 (2,12) -0.223172 (3,11) -3.675168E-04
(2,12): (2,11) 0.223172 (2,13) -0.235701 (2,31) 1.294692E-02 (3,12) -4.126155E-04
(2,13): (2,12) 0.235701 (2,14) -0.235904 (3,13) 2.055480E-04
(2,14): (2,13) 0.235904 (2,15) -0.249598 (2,33) 1.306869E-02 (3,14) 6.285877E-04
(2,15): (2,14) 0.249598 (2,16) -0.252791 (3,15) 3.193381E-03
(2,16): (2,15) 0.252791 (2,17) -0.274650 (2,35) 1.500925E-02 (3,16) 6.849222E-03
(2,17): (2,16) 0.274650 (2,18) -0.299117 (3,17) 2.446447E-02
(2,18): (2,17) 0.299117 (2,19) -0.384007 (2,37) 3.109117E-02 (3,18) 5.379848E-02
(2,19): (1,19) -0.396181 (2,18) 0.384007 (2,20) -0.204852 (3,19) 0.217031
(2,20): (1,20) -0.526287 (2,19) 0.204852 (2,39) 6.026223E-02 (3,20) 0.261175
(2,21): (1,21) 0.273937 (2,2) -1.619517E-02 (2,22) -0.116484 (3,21) -0.141274
(2,22): (1,22) 0.160704 (2,21) 0.116484 (2,23) -0.194734 (2,41) 3.371510E-02 (3,22) -0.116177
(2,23): (1,23) 6.385592E-02 (2,4) -4.288558E-02 (2,22) 0.194734 (2,24) -0.165403 (3,23) -5.029200E-02
(2,24): (1,24) 3.745136E-02 (2,23) 0.165403 (2,25) -0.204599 (2,43) 3.876198E-02 (3,24) -3.702171E-02
(2,25): (1,25) 2.103396E-02 (2,6) -2.705140E-02 (2,24) 0.204599 (2,26) -0.182516 (3,25) -1.605729E-02
(2,26): (1,26) 1.186656E-02 (2,25) 0.182516 (2,27) -0.211846 (2,45) 2.913308E-02 (3,26) -1.167578E-02
(2,27): (1,27) 9.685884E-03 (2,8) -1.828725E-02 (2,26) 0.211846 (2,28) -0.197254 (3,27) -5.980417E-03
(2,28): (1,28) 5.228410E-03 (2,27) 0.197254 (2,29) -0.221406 (2,47) 2.336109E-02 (3,28) -4.441694E-03
(2,29): (1,29) 6.174299E-03 (2,10) -1.437243E-02 (2,28) 0.221406 (2,30) -0.210196 (3,29) -3.006765E-03
(2,30): (1,30) 3.237079E-03 (2,29) 0.210196 (2,31) -0.231653 (2,49) 2.050619E-02 (3,30) -2.290418E-03
(2,31): (1,31) 4.912368E-03 (2,12) -1.294692E-02 (2,30) 0.231653 (2,32) -0.221712 (3,31) -1.905899E-03
(2,32): (1,32) 2.355912E-03 (2,31) 0.221712 (2,33) -0.242890 (2,51) 2.006142E-02 (3,32) -1.241490E-03
(2,33): (1,33) 3.800534E-03 (2,14) -1.306869E-02 (2,32) 0.242890 (2,34) -0.233230 (3,33) -3.924929E-04
(2,34): (1,34) 5.596254E-04 (2,33) 0.233230 (2,35) -0.257734 (2,53) 2.262734E-02 (3,34) 1.317199E-03
(2,35): (1,35) -9.171324E-04 (2,16) -1.500925E-02 (2,34) 0.257734 (2,36) -0.248365 (3,35) 6.554753E-03
(2,36): (1,36) -8.674185E-03 (2,35) 0.248365 (2,37) -0.284712 (2,55) 3.121791E-02 (3,36) 1.380545E-02
(2,37): (1,37) -2.903449E-02 (2,18) -3.109117E-02 (2,36) 0.284712 (2,38) -0.267516 (3,37) 4.292953E-02
(2,38): (1,38) -7.096345E-02 (2,37) 0.267516 (2,39) -0.322554 (2,57) 5.381361E-02 (3,38) 7.218702E-02
(2,39): (1,39) -0.271243 (2,20) -6.026223E-02 (2,38) 0.322554 (2,40) -0.184858 (3,39) 0.193807
(2,40): (1,40) -0.480130 (2,39) 0.184858 (2,59) 5.752294E-02 (3,40) 0.237749
(2,41): (1,41) 0.308643 (2,22) -3.371510E-02 (2,42) -0.121344 (3,41) -0.153594
(2,42): (1,42) 0.175388 (2,41) 0.121344 (2,43) -0.212384 (2,61) 4.157685E-02 (3,42) -0.125935
(2,43): (1,43) 5.261632E-02 (2,24) -3.876198E-02 (2,42) 0.212384 (2,44) -0.174016 (3,43) -5.221984E-02
(2,44): (1,44) 3.323031E-02 (2,43) 0.174016 (2,45) -0.218607 (2,63) 4.856926E-02 (3,44) -3.720684E-02
(2,45): (1,45) 1.217174E-02 (2,26) -2.913308E-02 (2,44) 0.218607 (2,46) -0.186868 (3,45) -1.477886E-02
(2,46): (1,46) 7.986404E-03 (2,45) 0.186868 (2,47) -0.222968 (2,65) 3.835975E-02 (3,46) -1.024309E-02
(2,47): (1,47) 3.574977E-03 (2,28) -2.336109E-02 (2,46) 0.222968 (2,48) -0.198768 (3,47) -4.411801E-03
(2,48): (1,48) 2.312080E-03 (2,47) 0.198768 (2,49) -0.230147 (2,67) 3.207208E-02 (3,48) -3.003862E-03
(2,49): (1,49) 1.390687E-03 (2,30) -2.050619E-02 (2,48) 0.230147 (2,50) -0.209472 (3,49) -1.559653E-03
(2,50): (1,50) 7.950218E-04 (2,49) 0.209472 (2,51) -0.238403 (2,69) 2.908919E-02 (3,50) -9.544812E-04
(2,51): (1,51) 5.371227E-04 (2,32) -2.006142E-02 (2,50) 0.238403 (2,52) -0.218480 (3,51) -4.003874E-04
(2,52): (1,52) -7.434767E-05 (2,51) 0.218480 (2,53) -0.247923 (2,71) 2.926359E-02 (3,52) 2.538586E-04
(2,53): (1,53) -1.036331E-03 (2,34) -2.262734E-02 (2,52) 0.247923 (2,54) -0.226046 (3,53) 1.789787E-03
(2,54): (1,54) -2.549901E-03 (2,53) 0.226046 (2,55) -0.260641 (2,73) 3.351594E-02 (3,54) 3.629776E-03
(2,55): (1,55) -8.051250E-03 (2,36) -3.121791E-02 (2,54) 0.260641 (2,56) -0.232369 (3,55) 1.100154E-02
(2,56): (1,56) -1.403726E-02 (2,55) 0.232369 (2,57) -0.280223 (2,75) 4.412625E-02 (3,56) 1.776222E-02
(2,57): (1,57) -4.413229E-02 (2,38) -5.381361E-02 (2,56) 0.280223 (2,58) -0.232025 (3,57) 4.975098E-02
(2,58): (1,58) -7.200717E-02 (2,57) 0.232025 (2,59) -0.294547 (2,77) 6.264029E-02 (3,58) 7.188557E-02
(2,59): (1,59) -0.250644 (2,40) -5.752294E-02 (2,58) 0.294547 (2,60) -0.165991 (3,59) 0.179611
(2,60): (1,60) -0.443187 (2,59) 0.165991 (2,79) 5.705179E-02 (3,60) 0.220142
(2,61): (1,61) 0.336275 (2,42) -4.157685E-02 (2,62) -0.128034 (3,61) -0.166662
(2,62): (1,62) 0.189694 (2,61) 0.128034 (2,63) -0.229079 (2,81) 4.727391E-02 (3,62) -0.135928
(2,63): (1,63) 5.526956E-02 (2,44) -4.856926E-02 (2,62) 0.229079 (2,64) -0.180488 (3,63) -5.529039E-02
(2,64): (1,64) 3.494353E-02 (2,63) 0.180488 (2,65) -0.232103 (2,83) 5.597240E-02 (3,64) -3.929688E-02
(2,65): (1,65) 1.183787E-02 (2,46) -3.835975E-02 (2,64) 0.232103 (2,66) -0.190700 (3,65) -1.488191E-02
(2,66): (1,66) 7.900419E-03 (2,65) 0.190700 (2,67) -0.233413 (2,85) 4.514748E-02 (3,66) -1.033263E-02
(2,67): (1,67) 2.921546E-03 (2,48) -3.207208E-02 (2,66) 0.233413 (2,68) -0.200317 (3,67) -3.944633E-03
(2,68): (1,68) 1.962560E-03 (2,67) 0.200317 (2,69) -0.237847 (2,87) 3.825884E-02 (3,68) -2.691364E-03
(2,69): (1,69) 7.380221E-04 (2,50) -2.908919E-02 (2,68) 0.237847 (2,70) -0.208495 (3,69) -1.002478E-03
(2,70): (1,70) 4.011205E-04 (2,69) 0.208495 (2,71) -0.243372 (2,89) 3.502486E-02 (3,70) -5.509015E-04
(2,71): (1,71) -1.593501E-04 (2,52) -2.926359E-02 (2,70) 0.243372 (2,72) -0.214199 (3,71) 2.478229E-04
(2,72): (1,72) -5.378868E-04 (2,71) 0.214199 (2,73) -0.249773 (2,91) 3.535100E-02 (3,72) 7.589160E-04
(2,73): (1,73) -1.930855E-03 (2,54) -3.351594E-02 (2,72) 0.249773 (2,74) -0.217013 (3,73) 2.684810E-03
(2,74): (1,74) -3.129593E-03 (2,73) 0.217013 (2,75) -0.257942 (2,93) 3.979800E-02 (3,74) 4.259712E-03
(2,75): (1,75) -9.177251E-03 (2,56) -4.412625E-02 (2,74) 0.257942 (2,76) -0.216658 (3,75) 1.202176E-02
(2,76): (1,76) -1.410001E-02 (2,75) 0.216658 (2,77) -0.269625 (2,95) 4.933177E-02 (3,76) 1.773368E-02
(2,77): (1,77) -4.268687E-02 (2,58) -6.264029E-02 (2,76) 0.269625 (2,78) -0.212265 (3,77) 4.797172E-02
(2,78): (1,78) -6.774774E-02 (2,77) 0.212265 (2,79) -0.276297 (2,97) 6.401138E-02 (3,78) 6.776392E-02
(2,79): (1,79) -0.233413 (2,60) -5.705179E-02 (2,78) 0.276297 (2,80) -0.153265 (3,79) 0.167433
(2,80): (1,80) -0.414275 (2,79) 0.153265 (2,99) 5.530942E-02 (3,80) 0.205700
(2,81): (1,81) 0.360937 (2,62) -4.727391E-02 (2,82) -0.134785 (3,81) -0.178870
(2,82): (1,82) 0.203025 (2,81) 0.134785 (2,83) -0.243925 (2,101) 5.159657E-02 (3,82) -0.145482
(2,83): (1,83) 5.896677E-02 (2,64) -5.597240E-02 (2,82) 0.243925 (2,84) -0.187940 (3,83) -5.897777E-02
(2,84): (1,84) 3.722497E-02 (2,83) 0.187940 (2,85) -0.244349 (2,103) 6.104697E-02 (3,84) -4.185995E-02
(2,85): (1,85) 1.245411E-02 (2,66) -4.514748E-02 (2,84) 0.244349 (2,86) -0.195979 (3,85) -1.567752E-02
(2,86): (1,86) 8.318612E-03 (2,85) 0.195979 (2,87) -0.242536 (2,105) 4.912745E-02 (3,86) -1.088802E-02
(2,87): (1,87) 2.955159E-03 (2,68) -3.825884E-02 (2,86) 0.242536 (2,88) -0.203216 (3,87) -4.015843E-03
(2,88): (1,88) 1.992627E-03 (2,87) 0.203216 (2,89) -0.243800 (2,107) 4.133347E-02 (3,88) -2.743590E-03
(2,89): (1,89) 6.428251E-04 (2,70) -3.502486E-02 (2,88) 0.243800 (2,90) -0.208526 (3,89) -8.949653E-04
(2,90): (1,90) 3.391649E-04 (2,89) 0.208526 (2,91) -0.245969 (2,109) 3.757655E-02 (3,90) -4.749699E-04
(2,91): (1,91) -2.952886E-04 (2,72) -3.535100E-02 (2,90) 0.245969 (2,92) -0.210736 (3,91) 4.139894E-04
(2,92): (1,92) -6.166263E-04 (2,91) 0.210736 (2,93) -0.248560 (2,111) 3.757996E-02 (3,92) 8.587620E-04
(2,93): (1,93) -2.049132E-03 (2,74) -3.979800E-02 (2,92) 0.248560 (2,94) -0.209536 (3,93) 2.821341E-03
(2,94): (1,94) -3.099298E-03 (2,93) 0.209536 (2,95) -0.252077 (2,113) 4.142805E-02 (3,94) 4.210420E-03
(2,95): (1,95) -8.888405E-03 (2,76) -4.933177E-02 (2,94) 0.252077 (2,96) -0.205490 (3,95) 1.162880E-02
(2,96): (1,96) -1.336709E-02 (2,95) 0.205490 (2,97) -0.258436 (2,115) 4.949118E-02 (3,96) 1.682091E-02
(2,97): (1,97) -4.013226E-02 (2,78) -6.401138E-02 (2,96) 0.258436 (2,98) -0.199418 (3,97) 4.512740E-02
(2,98): (1,98) -6.359119E-02 (2,97) 0.199418 (2,99) -0.261223 (2,117) 6.178143E-02 (3,98) 6.361049E-02
(2,99): (1,99) -0.218957 (2,80) -5.530942E-02 (2,98) 0.261223 (2,100) -0.143945 (3,99) 0.156991
(2,100): (1,100) -0.389401 (2,99) 0.143945 (2,119) 5.231323E-02 (3,100) 0.193143
(2,101): (1,101) 0.384483 (2,82) -5.159657E-02 (2,102) -0.142178 (3,101) -0.190701
(2,102): (1,102) 0.216185 (2,101) 0.142178 (2,103) -0.258049 (2,121) 5.469758E-02 (3,102) -0.155009
(2,103): (1,103) 6.280634E-02 (2,84) -6.104697E-02 (2,102) 0.258049 (2,104) -0.196969 (3,103) -6.283874E-02
(2,104): (1,104) 3.966443E-02 (2,103) 0.196969 (2,105) -0.255759 (2,123) 6.373816E-02 (3,104) -4.461207E-02
(2,105): (1,105) 1.324355E-02 (2,86) -4.912745E-02 (2,104) 0.255759 (2,106) -0.203205 (3,105) -1.667127E-02
(2,106): (1,106) 8.846750E-03 (2,105) 0.203205 (2,107) -0.250336 (2,125) 4.986215E-02 (3,106) -1.157787E-02
(2,107): (1,107) 3.113951E-03 (2,88) -4.133347E-02 (2,106) 0.250336 (2,108) -0.207886 (3,107) -4.232505E-03
(2,108): (1,108) 2.095684E-03 (2,107) 0.207886 (2,109) -0.247886 (2,127) 4.078845E-02 (3,108) -2.885550E-03
(2,109): (1,109) 6.556529E-04 (2,90) -3.757655E-02 (2,108) 0.247886 (2,110) -0.210054 (3,109) -9.143290E-04
(2,110): (1,110) 3.482228E-04 (2,109) 0.210054 (2,111) -0.246317 (2,129) 3.640003E-02 (3,110) -4.880129E-04
(2,111): (1,111) -3.019469E-04 (2,92) -3.757996E-02 (2,110) 0.246317 (2,112) -0.208853 (3,111) 4.222914E-04
(2,112): (1,112) -5.986988E-04 (2,111) 0.208853 (2,113) -0.245063 (2,131) 3.597417E-02 (3,112) 8.339393E-04
(2,113): (1,113) -1.973090E-03 (2,94) -4.142805E-02 (2,112) 0.245063 (2,114) -0.204376 (3,113) 2.716463E-03
(2,114): (1,114) -2.938987E-03 (2,113) 0.204376 (2,115) -0.244588 (2,133) 3.915548E-02 (3,114) 3.993918E-03
(2,115): (1,115) -8.382975E-03 (2,96) -4.949118E-02 (2,114) 0.244588 (2,116) -0.197686 (3,115) 1.096998E-02
(2,116): (1,116) -1.256112E-02 (2,115) 0.197686 (2,117) -0.247038 (2,135) 4.610648E-02 (3,116) 1.580865E-02
(2,117): (1,117) -3.767227E-02 (2,98) -6.178143E-02 (2,116) 0.247038 (2,118) -0.189938 (3,117) 4.235553E-02
(2,118): (1,118) -5.969218E-02 (2,117) 0.189938 (2,119) -0.246998 (2,137) 5.706455E-02 (3,118) 5.968479E-02
(2,119): (1,119) -0.205670 (2,100) -5.231323E-02 (2,118) 0.246998 (2,120) -0.136380 (3,119) 0.147364
(2,120): (1,120) -0.365716 (2,119) 0.136380 (2,139) 4.813020E-02 (3,120) 0.181211
(2,121): (1,121) 0.408963 (2,102) -5.469758E-02 (2,122) -0.151164 (3,121) -0.203098
(2,122): (1,122) 0.230428 (2,121) 0.151164 (2,123) -0.272605 (2,141) 5.636445E-02 (3,122) -0.165348
(2,123): (1,123) 6.698595E-02 (2,104) -6.373816E-02 (2,122) 0.272605 (2,124) -0.208809 (3,123) -6.704413E-02
(2,124): (1,124) 4.238107E-02 (2,123) 0.208809 (2,125) -0.266748 (2,143) 6.320919E-02 (3,124) -4.765225E-02
(2,125): (1,125) 1.411674E-02 (2,106) -4.986215E-02 (2,124) 0.266748 (2,126) -0.213242 (3,125) -1.776212E-02
(2,126): (1,126) 9.393210E-03 (2,125) 0.213242 (2,127) -0.256651 (2,145) 4.629611E-02 (3,126) -1.228189E-02
(2,127): (1,127) 3.283431E-03 (2,108) -4.078845E-02 (2,126) 0.256651 (2,128) -0.214690 (3,127) -4.460256E-03
(2,128): (1,128) 2.180344E-03 (2,127) 0.214690 (2,129) -0.249887 (2,147) 3.601587E-02 (3,128) -3.000568E-03
(2,129): (1,129) 6.791036E-04 (2,110) -3.640003E-02 (2,128) 0.249887 (2,130) -0.213225 (3,129) -9.469048E-04
(2,130): (1,130) 3.579101E-04 (2,129) 0.213225 (2,131) -0.244490 (2,149) 3.140797E-02 (3,130) -5.013114E-04
(2,131): (1,131) -2.817009E-04 (2,112) -3.597417E-02 (2,130) 0.244490 (2,132) -0.208626 (3,131) 3.943688E-04
(2,132): (1,132) -5.642306E-04 (2,131) 0.208626 (2,133) -0.239693 (2,151) 3.084548E-02 (3,132) 7.861213E-04
(2,133): (1,133) -1.859248E-03 (2,114) -3.915548E-02 (2,132) 0.239693 (2,134) -0.201234 (3,133) 2.560809E-03
(2,134): (1,134) -2.760602E-03 (2,133) 0.201234 (2,135) -0.235809 (2,153) 3.358441E-02 (3,134) 3.752734E-03
(2,135): (1,135) -7.858924E-03 (2,116) -4.610648E-02 (2,134) 0.235809 (2,136) -0.192126 (3,135) 1.028572E-02
(2,136): (1,136) -1.175908E-02 (2,135) 0.192126 (2,137) -0.234953 (2,155) 3.979039E-02 (3,136) 1.479974E-02
(2,137): (1,137) -3.525773E-02 (2,118) -5.706455E-02 (2,136) 0.234953 (2,138) -0.182258 (3,137) 3.963284E-02
(2,138): (1,138) -5.578147E-02 (2,137) 0.182258 (2,139) -0.232298 (2,157) 5.006176E-02 (3,138) 5.575753E-02
(2,139): (1,139) -0.192289 (2,120) -4.813020E-02 (2,138) 0.232298 (2,140) -0.129583 (3,139) 0.137699
(2,140): (1,140) -0.341131 (2,139) 0.129583 (2,159) 4.265778E-02 (3,140) 0.168900
(2,141): (1,141) 0.437353 (2,122) -5.636445E-02 (2,142) -0.163541 (3,141) -0.217445
(2,142): (1,142) 0.247799 (2,141) 0.163541 (2,143) -0.289080 (2,161) 5.541051E-02 (3,142) -0.177667
(2,143): (1,143) 7.186475E-02 (2,124) -6.320919E-02 (2,142) 0.289080 (2,144) -0.225936 (3,143) -7.180118E-02
(2,144): (1,144) 4.533882E-02 (2,143) 0.225936 (2,145) -0.277121 (2,163) 5.659991E-02 (3,144) -5.075408E-02
(2,145): (1,145) 1.492002E-02 (2,126) -4.629611E-02 (2,144) 0.277121 (2,146) -0.227030 (3,145) -1.871709E-02
(2,146): (1,146) 9.662679E-03 (2,145) 0.227030 (2,147) -0.260574 (2,165) 3.648947E-02 (3,146) -1.260949E-02
(2,147): (1,147) 3.336351E-03 (2,128) -3.601587E-02 (2,146) 0.260574 (2,148) -0.223373 (3,147) -4.527102E-03
(2,148): (1,148) 2.132766E-03 (2,147) 0.223373 (2,149) -0.249267 (2,167) 2.669502E-02 (3,148) -2.934051E-03
(2,149): (1,149) 6.587535E-04 (2,130) -3.140797E-02 (2,148) 0.249267 (2,150) -0.217609 (3,149) -9.184338E-04
(2,150): (1,150) 3.282187E-04 (2,149) 0.217609 (2,151) -0.240425 (2,169) 2.294866E-02 (3,150) -4.593532E-04
(2,151): (1,151) -2.725002E-04 (2,132) -3.084548E-02 (2,150) 0.240425 (2,152) -0.209692 (3,151) 3.807258E-04
(2,152): (1,152) -5.426692E-04 (2,151) 0.209692 (2,153) -0.232597 (2,171) 2.269360E-02 (3,152) 7.563960E-04
(2,153): (1,153) -1.751815E-03 (2,134) -3.358441E-02 (2,152) 0.232597 (2,154) -0.199672 (3,153) 2.412870E-03
(2,154): (1,154) -2.598418E-03 (2,153) 0.199672 (2,155) -0.225715 (2,173) 2.511058E-02 (3,154) 3.533232E-03
(2,155): (1,155) -7.347202E-03 (2,136) -3.979039E-02 (2,154) 0.225715 (2,156) -0.188194 (3,155) 9.618419E-03
(2,156): (1,156) -1.097357E-02 (2,155) 0.188194 (2,157) -0.221624 (2,175) 3.058700E-02 (3,156) 1.381955E-02
(2,157): (1,157) -3.277283E-02 (2,138) -5.006176E-02 (2,156) 0.221624 (2,158) -0.175635 (3,157) 3.685377E-02
(2,158): (1,158) -5.166730E-02 (2,157) 0.175635 (2,159) -0.215978 (2,177) 4.031960E-02 (3,158) 5.168859E-02
(2,159): (1,159) -0.177820 (2,140) -4.265778E-02 (2,158) 0.215978 (2,160) -0.122865 (3,159) 0.127359
(2,160): (1,160) -0.313892 (2,159) 0.122865 (2,179) 3.553617E-02 (3,160) 0.155498
(2,161): (1,161) 0.475420 (2,142) -5.541051E-02 (2,162) -0.184719 (3,161) -0.235287
(2,162): (1,162) 0.273070 (2,161) 0.184719 (2,163) -0.309123 (2,181) 4.317385E-02 (3,162) -0.191836
(2,163): (1,163) 7.696187E-02 (2,144) -5.659991E-02 (2,162) 0.309123 (2,164) -0.253711 (3,163) -7.577821E-02
(2,164): (1,164) 4.537432E-02 (2,163) 0.253711 (2,165) -0.283487 (2,183) 3.500674E-02 (3,164) -5.060630E-02
(2,165): (1,165) 1.464841E-02 (2,146) -3.648947E-02 (2,164) 0.283487 (2,166) -0.243322 (3,165) -1.832514E-02
(2,166): (1,166) 8.848355E-03 (2,165) 0.243322 (2,167) -0.260091 (2,185) 1.948497E-02 (3,166) -1.156128E-02
(2,167): (1,167) 3.028638E-03 (2,148) -2.669502E-02 (2,166) 0.260091 (2,168) -0.232315 (3,167) -4.112105E-03
(2,168): (1,168) 1.816807E-03 (2,167) 0.232315 (2,169) -0.245438 (2,187) 1.380863E-02 (3,168) -2.502098E-03
(2,169): (1,169) 5.481873E-04 (2,150) -2.294866E-02 (2,168) 0.245438 (2,170) -0.222276 (3,169) -7.632042E-04
(2,170): (1,170) 2.347663E-04 (2,169) 0.222276 (2,171) -0.234197 (2,189) 1.201498E-02 (3,170) -3.278488E-04
(2,171): (1,171) -2.942806E-04 (2,152) -2.269360E-02 (2,170) 0.234197 (2,172) -0.211623 (3,171) 4.126567E-04
(2,172): (1,172) -5.592514E-04 (2,171) 0.211623 (2,173) -0.224023 (2,191) 1.218097E-02 (3,172) 7.797876E-04
(2,173): (1,173) -1.692373E-03 (2,154) -2.511058E-02 (2,172) 0.224023 (2,174) -0.199554 (3,173) 2.332139E-03
(2,174): (1,174) -2.524638E-03 (2,173) 0.199554 (2,175) -0.214387 (2,193) 1.392059E-02 (3,174) 3.436667E-03
(2,175): (1,175) -6.944990E-03 (2,156) -3.058700E-02 (2,174) 0.214387 (2,176) -0.185960 (3,175) 9.108821E-03
(2,176): (1,176) -1.039784E-02 (2,175) 0.185960 (2,177) -0.206572 (2,195) 1.787010E-02 (3,176) 1.314104E-02
(2,177): (1,177) -3.035789E-02 (2,158) -4.031960E-02 (2,176) 0.206572 (2,178) -0.170153 (3,177) 3.426275E-02
(2,178): (1,178) -4.765473E-02 (2,177) 0.170153 (2,179) -0.196401 (2,197) 2.588498E-02 (3,178) 4.801483E-02
(2,179): (1,179) -0.161485 (2,160) -3.553617E-02 (2,178) 0.196401 (2,180) -0.115635 (3,179) 0.116247
(2,180): (1,180) -0.282168 (2,179) 0.115635 (2,199) 2.534340E-02 (3,180) 0.141192
(2,181): (1,181) 0.544039 (2,162) -4.317385E-02 (2,182) -0.251663 (3,181) -0.249197
(2,182): (1,182) 0.243087 (2,181) 0.251663 (2,183) -0.318345 (3,182) -0.176405
(2,183): (1,183) 6.777040E-02 (2,164) -3.500674E-02 (2,182) 0.318345 (2,184) -0.283448 (3,183) -6.765966E-02
(2,184): (1,184) 3.515505E-02 (2,183) 0.283448 (2,185) -0.278338 (3,184) -4.027251E-02
(2,185): (1,185) 1.150271E-02 (2,166) -1.948497E-02 (2,184) 0.278338 (2,186) -0.255762 (3,185) -1.458935E-02
(2,186): (1,186) 6.405319E-03 (2,185) 0.255762 (2,187) -0.253689 (3,186) -8.478162E-03
(2,187): (1,187) 2.226263E-03 (2,168) -1.380863E-02 (2,186) 0.253689 (2,188) -0.239062 (3,187) -3.041128E-03
(2,188): (1,188) 1.241971E-03 (2,187) 0.239062 (2,189) -0.238584 (3,188) -1.719204E-03
(2,189): (1,189) 3.420040E-04 (2,170) -1.201498E-02 (2,188) 0.238584 (2,190) -0.226433 (3,189) -4.778623E-04
(2,190): (1,190) 7.337875E-05 (2,189) 0.226433 (2,191) -0.226402 (3,190) -1.039351E-04
(2,191): (1,191) -3.873195E-04 (2,172) -1.218097E-02 (2,190) 0.226402 (2,192) -0.214376 (3,191) 5.411945E-04
(2,192): (1,192) -6.949492E-04 (2,191) 0.214376 (2,193) -0.214648 (3,192) 9.673793E-04
(2,193): (1,193) -1.844314E-03 (2,174) -1.392059E-02 (2,192) 0.214648 (2,194) -0.201431 (3,193) 2.542417E-03
(2,194): (1,194) -2.862772E-03 (2,193) 0.201431 (2,195) -0.202468 (3,194) 3.901490E-03
(2,195): (1,195) -7.243120E-03 (2,176) -1.787010E-02 (2,194) 0.202468 (2,196) -0.186890 (3,195) 9.532547E-03
(2,196): (1,196) -1.124166E-02 (2,195) 0.186890 (2,197) -0.189935 (3,196) 1.428518E-02
(2,197): (1,197) -2.981930E-02 (2,178) -2.588498E-02 (2,196) 0.189935 (2,198) -0.168316 (3,197) 3.408918E-02
(2,198): (1,198) -4.757693E-02 (2,197) 0.168316 (2,199) -0.169804 (3,198) 4.905621E-02
(2,199): (1,199) -0.142885 (2,180) -2.534340E-02 (2,198) 0.169804 (2,200) -0.108940 (3,199) 0.107365
(2,200): (1,200) -0.241542 (2,199) 0.108940 (3,200) 0.132604
(3,1): (2,1) 0.134355 (3,2) -7.223198E-02 (4,1) -6.211787E-02
(3,2): (2,2) 0.118321 (3,1) 7.223198E-02 (3,3) -0.134116 (3,21) -1.193749E-03 (4,2) -5.523876E-02
(3,3): (2,3) 3.462767E-02 (3,2) 0.134116 (3,4) -0.144849 (4,3) -2.389201E-02
(3,4): (2,4) 2.236143E-02 (3,3) 0.144849 (3,5) -0.172245 (3,23) 2.172606E-02 (4,4) -1.669376E-02
(3,5): (2,5) 7.617490E-03 (3,4) 0.172245 (3,6) -0.173393 (4,5) -6.465085E-03
(3,6): (2,6) 5.988796E-03 (3,5) 0.173393 (3,7) -0.193999 (3,25) 1.942375E-02 (4,6) -4.811658E-03
(3,7): (2,7) 2.226262E-03 (3,6) 0.193999 (3,8) -0.194290 (4,7) -1.934242E-03
(3,8): (2,8) 2.005016E-03 (3,7) 0.194290 (3,9) -0.210005 (3,27) 1.527558E-02 (4,8) -1.571324E-03
(3,9): (2,9) 8.311124E-04 (3,8) 0.210005 (3,10) -0.210139 (4,9) -7.007702E-04
(3,10): (2,10) 8.847211E-04 (3,9) 0.210139 (3,11) -0.223150 (3,29) 1.276482E-02 (4,10) -6.421314E-04
(3,11): (2,11) 3.675168E-04 (3,10) 0.223150 (3,12) -0.223239 (4,11) -2.839732E-04
(3,12): (2,12) 4.126155E-04 (3,11) 0.223239 (3,13) -0.235233 (3,31) 1.181565E-02 (4,12) -2.368659E-04
(3,13): (2,13) -2.055480E-04 (3,12) 0.235233 (3,14) -0.235282 (4,13) 2.521238E-04
(3,14): (2,14) -6.285877E-04 (3,13) 0.235282 (3,15) -0.247655 (3,33) 1.229515E-02 (4,14) 7.062985E-04
(3,15): (2,15) -3.193381E-03 (3,14) 0.247655 (3,16) -0.247415 (4,15) 2.953511E-03
(3,16): (2,16) -6.849222E-03 (3,15) 0.247415 (3,17) -0.261305 (3,35) 1.478617E-02 (4,16) 5.955714E-03
(3,17): (2,17) -2.446447E-02 (3,16) 0.261305 (3,18) -0.255979 (4,17) 1.913669E-02
(3,18): (2,18) -5.379848E-02 (3,17) 0.255979 (3,19) -0.260346 (3,37) 2.285712E-02 (4,18) 3.531414E-02
(3,19): (2,19) -0.217031 (3,18) 0.260346 (3,20) -0.139934 (4,19) 9.661223E-02
(3,20): (2,20) -0.261175 (3,19) 0.139934 (3,39) 9.226519E-03 (4,20) 0.112008
(3,21): (2,21) 0.141274 (3,2) 1.193749E-03 (3,22) -7.957759E-02 (4,21) -6.288818E-02
(3,22): (2,22) 0.116177 (3,21) 7.957759E-02 (3,23) -0.144821 (3,41) 5.368806E-03 (4,22) -5.629379E-02
(3,23): (2,23) 5.029200E-02 (3,4) -2.172606E-02 (3,22) 0.144821 (3,24) -0.145888 (4,23) -2.750368E-02
(3,24): (2,24) 3.702171E-02 (3,23) 0.145888 (3,25) -0.188717 (3,43) 2.724824E-02 (4,24) -2.144103E-02
(3,25): (2,25) 1.605729E-02 (3,6) -1.942375E-02 (3,24) 0.188717 (3,26) -0.176073 (4,25) -9.274247E-03
(3,26): (2,26) 1.167578E-02 (3,25) 0.176073 (3,27) -0.207531 (3,45) 2.678226E-02 (4,26) -7.000296E-03
(3,27): (2,27) 5.980417E-03 (3,8) -1.527558E-02 (3,26) 0.207531 (3,28) -0.194991 (4,27) -3.238080E-03
(3,28): (2,28) 4.441694E-03 (3,27) 0.194991 (3,29) -0.220319 (3,47) 2.338374E-02 (4,28) -2.498471E-03
(3,29): (2,29) 3.006765E-03 (3,10) -1.276482E-02 (3,28) 0.220319 (3,30) -0.209142 (4,29) -1.413704E-03
(3,30): (2,30) 2.290418E-03 (3,29) 0.209142 (3,31) -0.231361 (3,49) 2.105979E-02 (4,30) -1.132660E-03
(3,31): (2,31) 1.905899E-03 (3,12) -1.181565E-02 (3,30) 0.231361 (3,32) -0.220735 (4,31) -7.162202E-04
(3,32): (2,32) 1.241490E-03 (3,31) 0.220735 (3,33) -0.242247 (3,51) 2.069862E-02 (4,32) -4.290046E-04
(3,33): (2,33) 3.924929E-04 (3,14) -1.229515E-02 (3,32) 0.242247 (3,34) -0.230716 (4,33) 3.723182E-04
(3,34): (2,34) -1.317199E-03 (3,33) 0.230716 (3,35) -0.253766 (3,53) 2.298536E-02 (4,34) 1.383085E-03
(3,35): (2,35) -6.554753E-03 (3,16) -1.478617E-02 (3,34) 0.253766 (3,36) -0.237703 (4,35) 5.279874E-03
(3,36): (2,36) -1.380545E-02 (3,35) 0.237703 (3,37) -0.262649 (3,55) 2.909373E-02 (4,36) 9.659381E-03
(3,37): (2,37) -4.292953E-02 (3,18) -2.285712E-02 (3,36) 0.262649 (3,38) -0.224490 (4,37) 2.762686E-02
(3,38): (2,38) -7.218702E-02 (3,37) 0.224490 (3,39) -0.230418 (3,57) 3.681662E-02 (4,38) 4.130339E-02
(3,39): (2,39) -0.193807 (3,20) -9.226519E-03 (3,38) 0.230418 (3,40) -0.120238 (4,39) 9.285112E-02
(3,40): (2,40) -0.237749 (3,39) 0.120238 (3,59) 1.347903E-02 (4,40) 0.104029
(3,41): (2,41) 0.153594 (3,22) -5.368806E-03 (3,42) -8.066850E-02 (4,41) -6.755249E-02
(3,42): (2,42) 0.125935 (3,41) 8.066850E-02 (3,43) -0.156539 (3,61) 1.072309E-02 (4,42) -6.078355E-02
(3,43): (2,43) 5.221984E-02 (3,24) -2.724824E-02 (3,42) 0.156539 (3,44) -0.151938 (4,43) -2.957322E-02
(3,44): (2,44) 3.720684E-02 (3,43) 0.151938 (3,45) -0.201616 (3,63) 3.486961E-02 (4,44) -2.239281E-02
(3,45): (2,45) 1.477886E-02 (3,26) -2.678226E-02 (3,44) 0.201616 (3,46) -0.180197 (4,45) -9.416415E-03
(3,46): (2,46) 1.024309E-02 (3,45) 0.180197 (3,47) -0.218551 (3,65) 3.484549E-02 (4,46) -6.733236E-03
(3,47): (2,47) 4.411801E-03 (3,28) -2.338374E-02 (3,46) 0.218551 (3,48) -0.196698 (4,47) -2.879514E-03
(3,48): (2,48) 3.003862E-03 (3,47) 0.196698 (3,49) -0.229053 (3,67) 3.135938E-02 (4,48) -2.007070E-03
(3,49): (2,49) 1.559653E-03 (3,30) -2.105979E-02 (3,48) 0.229053 (3,50) -0.208582 (4,49) -9.692698E-04
(3,50): (2,50) 9.544812E-04 (3,49) 0.208582 (3,51) -0.237983 (3,69) 2.905283E-02 (4,50) -6.075615E-04
(3,51): (2,51) 4.003874E-04 (3,32) -2.069862E-02 (3,50) 0.237983 (3,52) -0.217518 (4,51) -1.683091E-04
(3,52): (2,52) -2.538586E-04 (3,51) 0.217518 (3,53) -0.246759 (3,71) 2.925901E-02 (4,52) 2.354686E-04
(3,53): (2,53) -1.789787E-03 (3,34) -2.298536E-02 (3,52) 0.246759 (3,54) -0.223340 (4,53) 1.356430E-03
(3,54): (2,54) -3.629776E-03 (3,53) 0.223340 (3,55) -0.255057 (3,73) 3.280005E-02 (4,54) 2.546565E-03
(3,55): (2,55) -1.100154E-02 (3,36) -2.909373E-02 (3,54) 0.255057 (3,56) -0.222427 (4,55) 7.467200E-03
(3,56): (2,56) -1.776222E-02 (3,55) 0.222427 (3,57) -0.255989 (3,75) 3.977742E-02 (4,56) 1.154608E-02
(3,57): (2,57) -4.975098E-02 (3,38) -3.681662E-02 (3,56) 0.255989 (3,58) -0.199474 (4,57) 3.005255E-02
(3,58): (2,58) -7.188557E-02 (3,57) 0.199474 (3,59) -0.212937 (3,77) 4.452373E-02 (4,58) 4.082980E-02
(3,59): (2,59) -0.179611 (3,40) -1.347903E-02 (3,58) 0.212937 (3,60) -0.106387 (4,59) 8.653803E-02
(3,60): (2,60) -0.220142 (3,59) 0.106387 (3,79) 1.712107E-02 (4,60) 9.663293E-02
(3,61): (2,61) 0.166662 (3,42) -1.072309E-02 (3,62) -8.283680E-02 (4,61) -7.309363E-02
(3,62): (2,62) 0.135928 (3,61) 8.283680E-02 (3,63) -0.167990 (3,81) 1.474237E-02 (4,62) -6.551740E-02
(3,63): (2,63) 5.529039E-02 (3,44) -3.486961E-02 (3,62) 0.167990 (3,64) -0.156968 (4,63) -3.144279E-02
(3,64): (2,64) 3.929688E-02 (3,63) 0.156968 (3,65) -0.213606 (3,83) 4.106264E-02 (4,64) -2.371554E-02
(3,65): (2,65) 1.488191E-02 (3,46) -3.484549E-02 (3,64) 0.213606 (3,66) -0.184010 (4,65) -9.636899E-03
(3,66): (2,66) 1.033263E-02 (3,65) 0.184010 (3,67) -0.228573 (3,85) 4.109831E-02 (4,66) -6.866717E-03
(3,67): (2,67) 3.944633E-03 (3,48) -3.135938E-02 (3,66) 0.228573 (3,68) -0.198474 (4,67) -2.686182E-03
(3,68): (2,68) 2.691364E-03 (3,67) 0.198474 (3,69) -0.236567 (3,87) 3.725544E-02 (4,68) -1.853708E-03
(3,69): (2,69) 1.002478E-03 (3,50) -2.905283E-02 (3,68) 0.236567 (3,70) -0.207831 (4,69) -6.875626E-04
(3,70): (2,70) 5.509015E-04 (3,69) 0.207831 (3,71) -0.242767 (3,89) 3.476421E-02 (4,70) -3.803743E-04
(3,71): (2,71) -2.478229E-04 (3,52) -2.925901E-02 (3,70) 0.242767 (3,72) -0.213448 (4,71) 1.849773E-04
(3,72): (2,72) -7.589160E-04 (3,71) 0.213448 (3,73) -0.248314 (3,91) 3.508970E-02 (4,72) 5.343298E-04
(3,73): (2,73) -2.684810E-03 (3,54) -3.280005E-02 (3,72) 0.248314 (3,74) -0.214697 (4,73) 1.867494E-03
(3,74): (2,74) -4.259712E-03 (3,73) 0.214697 (3,75) -0.252062 (3,93) 3.870833E-02 (4,74) 2.916326E-03
(3,75): (2,75) -1.202176E-02 (3,56) -3.977742E-02 (3,74) 0.252062 (3,76) -0.208258 (4,75) 7.995768E-03
(3,76): (2,76) -1.773368E-02 (3,75) 0.208258 (3,77) -0.246717 (3,95) 4.470686E-02 (4,76) 1.148576E-02
(3,77): (2,77) -4.797172E-02 (3,58) -4.452373E-02 (3,76) 0.246717 (3,78) -0.183159 (4,77) 2.893783E-02
(3,78): (2,78) -6.776392E-02 (3,77) 0.183159 (3,79) -0.200790 (3,97) 4.686250E-02 (4,78) 3.853622E-02
(3,79): (2,79) -0.167433 (3,60) -1.712107E-02 (3,78) 0.200790 (3,80) -9.699093E-02 (4,79) 8.075514E-02
(3,80): (2,80) -0.205700 (3,79) 9.699093E-02 (3,99) 1.840875E-02 (4,80) 9.029971E-02
(3,81): (2,81) 0.178870 (3,62) -1.474237E-02 (3,82) -8.568593E-02 (4,81) -7.843001E-02
(3,82): (2,82) 0.145482 (3,81) 8.568593E-02 (3,83) -0.178391 (3,101) 1.733956E-02 (4,82) -7.012189E-02
(3,83): (2,83) 5.897777E-02 (3,64) -4.106264E-02 (3,82) 0.178391 (3,84) -0.162767 (4,83) -3.353929E-02
(3,84): (2,84) 4.185995E-02 (3,83) 0.162767 (3,85) -0.224514 (3,103) 4.515394E-02 (4,84) -2.526284E-02
(3,85): (2,85) 1.567752E-02 (3,66) -4.109831E-02 (3,84) 0.224514 (3,86) -0.188936 (4,85) -1.016201E-02
(3,86): (2,86) 1.088802E-02 (3,85) 0.188936 (3,87) -0.237330 (3,105) 4.474620E-02 (4,86) -7.240122E-03
(3,87): (2,87) 4.015843E-03 (3,68) -3.725544E-02 (3,86) 0.237330 (3,88) -0.201345 (4,87) -2.746007E-03
(3,88): (2,88) 2.743590E-03 (3,87) 0.201345 (3,89) -0.242399 (3,107) 4.020550E-02 (4,88) -1.894902E-03
(3,89): (2,89) 8.949653E-04 (3,70) -3.476421E-02 (3,88) 0.242399 (3,90) -0.207908 (4,89) -6.238048E-04
(3,90): (2,90) 4.749699E-04 (3,89) 0.207908 (3,91) -0.245295 (3,109) 3.724370E-02 (4,90) -3.327849E-04
(3,91): (2,91) -4.139894E-04 (3,72) -3.508970E-02 (3,90) 0.245295 (3,92) -0.210082 (4,91) 2.897755E-04
(3,92): (2,92) -8.587620E-04 (3,91) 0.210082 (3,93) -0.247073 (3,111) 3.724931E-02 (4,92) 5.983318E-04
(3,93): (2,93) -2.821341E-03 (3,74) -3.870833E-02 (3,92) 0.247073 (3,94) -0.207493 (4,93) 1.949498E-03
(3,94): (2,94) -4.210420E-03 (3,93) 0.207493 (3,95) -0.246457 (3,113) 4.029627E-02 (4,94) 2.878677E-03
(3,95): (2,95) -1.162880E-02 (3,76) -4.470686E-02 (3,94) 0.246457 (3,96) -0.197855 (4,95) 7.728017E-03
(3,96): (2,96) -1.682091E-02 (3,95) 0.197855 (3,97) -0.236991 (3,115) 4.505865E-02 (4,96) 1.089823E-02
(3,97): (2,97) -4.512740E-02 (3,78) -4.686250E-02 (3,96) 0.236991 (3,98) -0.172237 (4,97) 2.723334E-02
(3,98): (2,98) -6.361049E-02 (3,97) 0.172237 (3,99) -0.190480 (3,117) 4.567919E-02 (4,98) 3.617739E-02
(3,99): (2,99) -0.156991 (3,80) -1.840875E-02 (3,98) 0.190480 (3,100) -9.078003E-02 (4,99) 7.569809E-02
(3,100): (2,100) -0.193143 (3,99) 9.078003E-02 (3,119) 1.763187E-02 (4,100) 8.473388E-02
(3,101): (2,101) 0.190701 (3,82) -1.733956E-02 (3,102) -8.968815E-02 (4,101) -8.366227E-02
(3,102): (2,102) 0.155009 (3,101) 8.968815E-02 (3,103) -0.188223 (3,121) 1.826659E-02 (4,102) -7.474806E-02
(3,103): (2,103) 6.283874E-02 (3,84) -4.515394E-02 (3,102) 0.188223 (3,104) -0.170165 (4,103) -3.574262E-02
(3,104): (2,104) 4.461207E-02 (3,103) 0.170165 (3,105) -0.234592 (3,123) 4.674417E-02 (4,104) -2.692726E-02
(3,105): (2,105) 1.667127E-02 (3,86) -4.474620E-02 (3,104) 0.234592 (3,106) -0.195714 (4,105) -1.080613E-02
(3,106): (2,106) 1.157787E-02 (3,105) 0.195714 (3,107) -0.244771 (3,125) 4.517711E-02 (4,106) -7.697932E-03
(3,107): (2,107) 4.232505E-03 (3,88) -4.020550E-02 (3,106) 0.244771 (3,108) -0.205905 (4,107) -2.894621E-03
(3,108): (2,108) 2.885550E-03 (3,107) 0.205905 (3,109) -0.246393 (3,127) 3.959549E-02 (4,108) -1.993238E-03
(3,109): (2,109) 9.143290E-04 (3,90) -3.724370E-02 (3,108) 0.246393 (3,110) -0.209428 (4,109) -6.385748E-04
(3,110): (2,110) 4.880129E-04 (3,109) 0.209428 (3,111) -0.245627 (3,129) 3.605239E-02 (4,110) -3.426898E-04
(3,111): (2,111) -4.222914E-04 (3,92) -3.724931E-02 (3,110) 0.245627 (3,112) -0.208248 (4,111) 2.944656E-04
(3,112): (2,112) -8.339393E-04 (3,111) 0.208248 (3,113) -0.243637 (3,131) 3.564116E-02 (4,112) 5.805832E-04
(3,113): (2,113) -2.716463E-03 (3,94) -4.029627E-02 (3,112) 0.243637 (3,114) -0.202498 (4,113) 1.876363E-03
(3,114): (2,114) -3.993918E-03 (3,113) 0.202498 (3,115) -0.239303 (3,133) 3.806979E-02 (4,114) 2.731070E-03
(3,115): (2,115) -1.096998E-02 (3,96) -4.505865E-02 (3,114) 0.239303 (3,116) -0.190570 (4,115) 7.291192E-03
(3,116): (2,116) -1.580865E-02 (3,115) 0.190570 (3,117) -0.226927 (3,135) 4.192245E-02 (4,116) 1.024343E-02
(3,117): (2,117) -4.235553E-02 (3,98) -4.567919E-02 (3,116) 0.226927 (3,118) -0.164454 (4,117) 2.555871E-02
(3,118): (2,118) -5.968479E-02 (3,117) 0.164454 (3,119) -0.180574 (3,137) 4.187367E-02 (4,118) 3.393617E-02
(3,119): (2,119) -0.147364 (3,100) -1.763187E-02 (3,118) 0.180574 (3,120) -8.660369E-02 (4,119) 7.102234E-02
(3,120): (2,120) -0.181211 (3,119) 8.660369E-02 (3,139) 1.516638E-02 (4,120) 7.944786E-02
(3,121): (2,121) 0.203098 (3,102) -1.826659E-02 (3,122) -9.564971E-02 (4,121) -8.917029E-02
(3,122): (2,122) 0.165348 (3,121) 9.564971E-02 (3,123) -0.198132 (3,141) 1.689712E-02 (4,122) -7.977174E-02
(3,123): (2,123) 6.704413E-02 (3,104) -4.674417E-02 (3,122) 0.198132 (3,124) -0.180292 (4,123) -3.814083E-02
(3,124): (2,124) 4.765225E-02 (3,123) 0.180292 (3,125) -0.244104 (3,143) 4.491454E-02 (4,124) -2.875270E-02
(3,125): (2,125) 1.776212E-02 (3,106) -4.517711E-02 (3,124) 0.244104 (3,126) -0.205182 (4,125) -1.150833E-02
(3,126): (2,126) 1.228189E-02 (3,125) 0.205182 (3,127) -0.250725 (3,145) 4.142095E-02 (4,126) -8.159942E-03
(3,127): (2,127) 4.460256E-03 (3,108) -3.959549E-02 (3,126) 0.250725 (3,128) -0.212543 (4,127) -3.049372E-03
(3,128): (2,128) 3.000568E-03 (3,127) 0.212543 (3,129) -0.248331 (3,147) 3.485941E-02 (4,128) -2.072414E-03
(3,129): (2,129) 9.469048E-04 (3,110) -3.605239E-02 (3,128) 0.248331 (3,130) -0.212570 (4,129) -6.616012E-04
(3,130): (2,130) 5.013114E-04 (3,129) 0.212570 (3,131) -0.243812 (3,149) 3.109197E-02 (4,130) -3.519695E-04
(3,131): (2,131) -3.943688E-04 (3,112) -3.564116E-02 (3,130) 0.243812 (3,132) -0.208050 (4,131) 2.752914E-04
(3,132): (2,132) -7.861213E-04 (3,131) 0.208050 (3,133) -0.238348 (3,151) 3.053836E-02 (4,132) 5.478965E-04
(3,133): (2,133) -2.560809E-03 (3,114) -3.806979E-02 (3,132) 0.238348 (3,134) -0.199481 (4,133) 1.769471E-03
(3,134): (2,134) -3.752734E-03 (3,133) 0.199481 (3,135) -0.230860 (3,153) 3.256937E-02 (4,134) 2.566920E-03
(3,135): (2,135) -1.028572E-02 (3,116) -4.192245E-02 (3,134) 0.230860 (3,136) -0.185487 (4,135) 6.837322E-03
(3,136): (2,136) -1.479974E-02 (3,135) 0.185487 (3,137) -0.216140 (3,155) 3.586515E-02 (4,136) 9.590062E-03
(3,137): (2,137) -3.963284E-02 (3,118) -4.187367E-02 (3,136) 0.216140 (3,138) -0.158545 (4,137) 2.391280E-02
(3,138): (2,138) -5.575753E-02 (3,137) 0.158545 (3,139) -0.170221 (3,157) 3.574072E-02 (4,138) 3.169781E-02
(3,139): (2,139) -0.137699 (3,120) -1.516638E-02 (3,138) 0.170221 (3,140) -8.369910E-02 (4,139) 6.634003E-02
(3,140): (2,140) -0.168900 (3,139) 8.369910E-02 (3,159) 1.118767E-02 (4,140) 7.401978E-02
(3,141): (2,141) 0.217445 (3,122) -1.689712E-02 (3,142) -0.105045 (4,141) -9.549199E-02
(3,142): (2,142) 0.177667 (3,141) 0.105045 (3,143) -0.208878 (3,161) 1.175920E-02 (4,142) -8.560344E-02
(3,143): (2,143) 7.180118E-02 (3,124) -4.491454E-02 (3,142) 0.208878 (3,144) -0.194984 (4,143) -4.078260E-02
(3,144): (2,144) 5.075408E-02 (3,143) 0.194984 (3,145) -0.252851 (3,163) 3.764223E-02 (4,144) -3.052773E-02
(3,145): (2,145) 1.871709E-02 (3,126) -4.142095E-02 (3,144) 0.252851 (3,146) -0.218048 (4,145) -1.209950E-02
(3,146): (2,146) 1.260949E-02 (3,145) 0.218048 (3,147) -0.254451 (3,165) 3.215943E-02 (4,146) -8.364583E-03
(3,147): (2,147) 4.527102E-03 (3,128) -3.485941E-02 (3,146) 0.254451 (3,148) -0.221030 (4,147) -3.092609E-03
(3,148): (2,148) 2.934051E-03 (3,147) 0.221030 (3,149) -0.247740 (3,167) 2.580255E-02 (4,148) -2.025825E-03
(3,149): (2,149) 9.184338E-04 (3,130) -3.109197E-02 (3,148) 0.247740 (3,150) -0.216934 (4,149) -6.420757E-04
(3,150): (2,150) 4.593532E-04 (3,149) 0.216934 (3,151) -0.239789 (3,169) 2.271847E-02 (4,150) -3.227929E-04
(3,151): (2,151) -3.807258E-04 (3,132) -3.053836E-02 (3,150) 0.239789 (3,152) -0.209139 (4,151) 2.652668E-04
(3,152): (2,152) -7.563960E-04 (3,151) 0.209139 (3,153) -0.231342 (3,171) 2.243319E-02 (4,152) 5.268847E-04
(3,153): (2,153) -2.412870E-03 (3,134) -3.256937E-02 (3,152) 0.231342 (3,154) -0.198025 (4,153) 1.666949E-03
(3,154): (2,154) -3.533232E-03 (3,153) 0.198025 (3,155) -0.221105 (3,173) 2.420066E-02 (4,154) 2.416977E-03
(3,155): (2,155) -9.618419E-03 (3,136) -3.586515E-02 (3,154) 0.221105 (3,156) -0.182015 (4,155) 6.394676E-03
(3,156): (2,156) -1.381955E-02 (3,155) 0.182015 (3,157) -0.204174 (3,175) 2.701827E-02 (4,156) 8.958433E-03
(3,157): (2,157) -3.685377E-02 (3,138) -3.574072E-02 (3,156) 0.204174 (3,158) -0.153819 (4,157) 2.224322E-02
(3,158): (2,158) -5.168859E-02 (3,157) 0.153819 (3,159) -0.158652 (3,177) 2.711821E-02 (4,158) 2.940665E-02
(3,159): (2,159) -0.127359 (3,140) -1.118767E-02 (3,158) 0.158652 (3,160) -8.148407E-02 (4,159) 6.138086E-02
(3,160): (2,160) -0.155498 (3,159) 8.148407E-02 (3,179) 5.800690E-03 (4,160) 6.821298E-02
(3,161): (2,161) 0.235287 (3,142) -1.175920E-02 (3,162) -0.120821 (4,161) -0.102696
(3,162): (2,162) 0.191836 (3,161) 0.120821 (3,163) -0.221201 (3,181) -2.815353E-04 (4,162) -9.118333E-02
(3,163): (2,163) 7.577821E-02 (3,144) -3.764223E-02 (3,162) 0.221201 (3,164) -0.216693 (4,163) -4.264715E-02
(3,164): (2,164) 5.060630E-02 (3,163) 0.216693 (3,165) -0.259032 (3,183) 2.208753E-02 (4,164) -3.035389E-02
(3,165): (2,165) 1.832514E-02 (3,146) -3.215943E-02 (3,164) 0.259032 (3,166) -0.233375 (4,165) -1.182423E-02
(3,166): (2,166) 1.156128E-02 (3,165) 0.233375 (3,167) -0.254448 (3,185) 1.719098E-02 (4,166) -7.677614E-03
(3,167): (2,167) 4.112105E-03 (3,148) -2.580255E-02 (3,166) 0.254448 (3,168) -0.229947 (4,167) -2.810103E-03
(3,168): (2,168) 2.502098E-03 (3,167) 0.229947 (3,169) -0.244121 (3,187) 1.340028E-02 (4,168) -1.729731E-03
(3,169): (2,169) 7.632042E-04 (3,150) -2.271847E-02 (3,168) 0.244121 (3,170) -0.221636 (4,169) -5.337885E-04
(3,170): (2,170) 3.278488E-04 (3,169) 0.221636 (3,171) -0.233636 (3,189) 1.190133E-02 (4,170) -2.302152E-04
(3,171): (2,171) -4.126567E-04 (3,152) -2.243319E-02 (3,170) 0.233636 (3,172) -0.211083 (4,171) 2.883425E-04
(3,172): (2,172) -7.797876E-04 (3,171) 0.211083 (3,173) -0.222847 (3,191) 1.200022E-02 (4,172) 5.446990E-04
(3,173): (2,173) -2.332139E-03 (3,154) -2.420066E-02 (3,172) 0.222847 (3,174) -0.197929 (4,173) 1.612430E-03
(3,174): (2,174) -3.436667E-03 (3,173) 0.197929 (3,175) -0.210090 (3,193) 1.324313E-02 (4,174) 2.354054E-03
(3,175): (2,175) -9.108821E-03 (3,156) -2.701827E-02 (3,174) 0.210090 (3,176) -0.180030 (4,175) 6.064844E-03
(3,176): (2,176) -1.314104E-02 (3,175) 0.180030 (3,177) -0.190571 (3,195) 1.513640E-02 (4,176) 8.542769E-03
(3,177): (2,177) -3.426275E-02 (3,158) -2.711821E-02 (3,176) 0.190571 (3,178) -0.149929 (4,177) 2.073888E-02
(3,178): (2,178) -4.801483E-02 (3,177) 0.149929 (3,179) -0.144710 (3,197) 1.533524E-02 (4,178) 2.746231E-02
(3,179): (2,179) -0.116247 (3,160) -5.800690E-03 (3,178) 0.144710 (3,180) -7.895164E-02 (4,179) 5.629506E-02
(3,180): (2,180) -0.141192 (3,179) 7.895164E-02 (3,199) -2.832867E-04 (4,180) 6.251750E-02
(3,181): (2,181) 0.249197 (3,162) 2.815353E-04 (3,182) -0.144615 (4,181) -0.104863
(3,182): (2,182) 0.176405 (3,181) 0.144615 (3,183) -0.235963 (4,182) -8.506742E-02
(3,183): (2,183) 6.765966E-02 (3,164) -2.208753E-02 (3,182) 0.235963 (3,184) -0.243173 (4,183) -3.835375E-02
(3,184): (2,184) 4.027251E-02 (3,183) 0.243173 (3,185) -0.258881 (4,184) -2.456803E-02
(3,185): (2,185) 1.458935E-02 (3,166) -1.719098E-02 (3,184) 0.258881 (3,186) -0.246775 (4,185) -9.502751E-03
(3,186): (2,186) 8.478162E-03 (3,185) 0.246775 (3,187) -0.249570 (4,186) -5.684856E-03
(3,187): (2,187) 3.041128E-03 (3,168) -1.340028E-02 (3,186) 0.249570 (3,188) -0.237118 (4,187) -2.087727E-03
(3,188): (2,188) 1.719204E-03 (3,187) 0.237118 (3,189) -0.237644 (4,188) -1.192127E-03
(3,189): (2,189) 4.778623E-04 (3,170) -1.190133E-02 (3,188) 0.237644 (3,190) -0.225883 (4,189) -3.320949E-04
(3,190): (2,190) 1.039351E-04 (3,189) 0.225883 (3,191) -0.225913 (4,190) -7.116854E-05
(3,191): (2,191) -5.411945E-04 (3,172) -1.200022E-02 (3,190) 0.225913 (3,192) -0.213749 (4,191) 3.816924E-04
(3,192): (2,192) -9.673793E-04 (3,191) 0.213749 (3,193) -0.213455 (4,192) 6.780964E-04
(3,193): (2,193) -2.542417E-03 (3,174) -1.324313E-02 (3,192) 0.213455 (3,194) -0.199432 (4,193) 1.761323E-03
(3,194): (2,194) -3.901490E-03 (3,193) 0.199432 (3,195) -0.198202 (4,194) 2.677613E-03
(3,195): (2,195) -9.532547E-03 (3,176) -1.513640E-02 (3,194) 0.198202 (3,196) -0.179901 (4,195) 6.366324E-03
(3,196): (2,196) -1.428518E-02 (3,195) 0.179901 (3,197) -0.174932 (4,196) 9.320035E-03
(3,197): (2,197) -3.408918E-02 (3,178) -1.533524E-02 (3,196) 0.174932 (3,198) -0.146306 (4,197) 2.079774E-02
(3,198): (2,198) -4.905621E-02 (3,197) 0.146306 (3,199) -0.125630 (4,198) 2.838132E-02
(3,199): (2,199) -0.107365 (3,180) 2.832867E-04 (3,198) 0.125630 (3,200) -7.182399E-02 (4,199) 5.327512E-02
(3,200): (2,200) -0.132604 (3,199) 7.182399E-02 (4,200) 6.078300E-02
(4,1): (3,1) 6.211787E-02 (4,2) -6.211566E-02
(4,2): (3,2) 5.523876E-02 (4,1) 6.211566E-02 (4,3) -0.110368 (4,21) -6.988763E-03
(4,3): (3,3) 2.389201E-02 (4,2) 0.110368 (4,4) -0.134264
(4,4): (3,4) 1.669376E-02 (4,3) 0.134264 (4,5) -0.164496 (4,23) 1.353672E-02
(4,5): (3,5) 6.465085E-03 (4,4) 0.164496 (4,6) -0.170962
(4,6): (3,6) 4.811658E-03 (4,5) 0.170962 (4,7) -0.191819 (4,25) 1.604300E-02
(4,7): (3,7) 1.934242E-03 (4,6) 0.191819 (4,8) -0.193757
(4,8): (3,8) 1.571324E-03 (4,7) 0.193757 (4,9) -0.209345 (4,27) 1.401289E-02
(4,9): (3,9) 7.007702E-04 (4,8) 0.209345 (4,10) -0.210052
(4,10): (3,10) 6.421314E-04 (4,9) 0.210052 (4,11) -0.222879 (4,29) 1.218029E-02
(4,11): (3,11) 2.839732E-04 (4,10) 0.222879 (4,12) -0.223170
(4,12): (3,12) 2.368659E-04 (4,11) 0.223170 (4,13) -0.234862 (4,31) 1.145250E-02
(4,13): (3,13) -2.521238E-04 (4,12) 0.234862 (4,14) -0.234614
(4,14): (3,14) -7.062985E-04 (4,13) 0.234614 (4,15) -0.245952 (4,33) 1.204213E-02
(4,15): (3,15) -2.953511E-03 (4,14) 0.245952 (4,16) -0.243000
(4,16): (3,16) -5.955714E-03 (4,15) 0.243000 (4,17) -0.251319 (4,35) 1.427417E-02
(4,17): (3,17) -1.913669E-02 (4,16) 0.251319 (4,18) -0.232188
(4,18): (3,18) -3.531414E-02 (4,17) 0.232188 (4,19) -0.213909 (4,37) 1.703343E-02
(4,19): (3,19) -9.661223E-02 (4,18) 0.213909 (4,20) -0.117293
(4,20): (3,20) -0.112008 (4,19) 0.117293 (4,39) -5.286425E-03
(4,21): (3,21) 6.288818E-02 (4,2) 6.988763E-03 (4,22) -6.987996E-02
(4,22): (3,22) 5.629379E-02 (4,21) 6.987996E-02 (4,23) -0.123010 (4,41) -3.160510E-03
(4,23): (3,23) 2.750368E-02 (4,4) -1.353672E-02 (4,22) 0.123010 (4,24) -0.136972
(4,24): (3,24) 2.144103E-02 (4,23) 0.136972 (4,25) -0.179499 (4,43) 2.108750E-02
(4,25): (3,25) 9.274247E-03 (4,6) -1.604300E-02 (4,24) 0.179499 (4,26) -0.172729
(4,26): (3,26) 7.000296E-03 (4,25) 0.172729 (4,27) -0.204681 (4,45) 2.495187E-02
(4,27): (3,27) 3.238080E-03 (4,8) -1.401289E-02 (4,26) 0.204681 (4,28) -0.193903
(4,28): (3,28) 2.498471E-03 (4,27) 0.193903 (4,29) -0.219497 (4,47) 2.309507E-02
(4,29): (3,29) 1.413704E-03 (4,10) -1.218029E-02 (4,28) 0.219497 (4,30) -0.208729
(4,30): (3,30) 1.132660E-03 (4,29) 0.208729 (4,31) -0.231046 (4,49) 2.118357E-02
(4,31): (3,31) 7.162202E-04 (4,12) -1.145250E-02 (4,30) 0.231046 (4,32) -0.220313
(4,32): (3,32) 4.290046E-04 (4,31) 0.220313 (4,33) -0.241640 (4,51) 2.089611E-02
(4,33): (3,33) -3.723182E-04 (4,14) -1.204213E-02 (4,32) 0.241640 (4,34) -0.229229
(4,34): (3,34) -1.383085E-03 (4,33) 0.229229 (4,35) -0.250814 (4,53) 2.296517E-02
(4,35): (3,35) -5.279874E-03 (4,16) -1.427417E-02 (4,34) 0.250814 (4,36) -0.231262
(4,36): (3,36) -9.659381E-03 (4,35) 0.231262 (4,37) -0.249037 (4,55) 2.743299E-02
(4,37): (3,37) -2.762686E-02 (4,18) -1.703343E-02 (4,36) 0.249037 (4,38) -0.204378
(4,38): (3,38) -4.130339E-02 (4,37) 0.204378 (4,39) -0.191366 (4,57) 2.829326E-02
(4,39): (3,39) -9.285112E-02 (4,20) 5.286425E-03 (4,38) 0.191366 (4,40) -0.103800
(4,40): (3,40) -0.104029 (4,39) 0.103800 (4,59) 2.283559E-04
(4,41): (3,41) 6.755249E-02 (4,22) 3.160510E-03 (4,42) -7.071418E-02
(4,42): (3,42) 6.078355E-02 (4,41) 7.071418E-02 (4,43) -0.132895 (4,61) 1.397276E-03
(4,43): (3,43) 2.957322E-02 (4,24) -2.108750E-02 (4,42) 0.132895 (4,44) -0.141379
(4,44): (3,44) 2.239281E-02 (4,43) 0.141379 (4,45) -0.191785 (4,63) 2.801356E-02
(4,45): (3,45) 9.416415E-03 (4,26) -2.495187E-02 (4,44) 0.191785 (4,46) -0.176252
(4,46): (3,46) 6.733236E-03 (4,45) 0.176252 (4,47) -0.215631 (4,65) 3.264575E-02
(4,47): (3,47) 2.879514E-03 (4,28) -2.309507E-02 (4,46) 0.215631 (4,48) -0.195415
(4,48): (3,48) 2.007070E-03 (4,47) 0.195415 (4,49) -0.228267 (4,67) 3.084490E-02
(4,49): (3,49) 9.692698E-04 (4,30) -2.118357E-02 (4,48) 0.228267 (4,50) -0.208050
(4,50): (3,50) 6.075615E-04 (4,49) 0.208050 (4,51) -0.237650 (4,69) 2.899223E-02
(4,51): (3,51) 1.683091E-04 (4,32) -2.089611E-02 (4,50) 0.237650 (4,52) -0.216924
(4,52): (3,52) -2.354686E-04 (4,51) 0.216924 (4,53) -0.245910 (4,71) 2.922076E-02
(4,53): (3,53) -1.356430E-03 (4,34) -2.296517E-02 (4,52) 0.245910 (4,54) -0.221590
(4,54): (3,54) -2.546565E-03 (4,53) 0.221590 (4,55) -0.251329 (4,73) 3.228561E-02
(4,55): (3,55) -7.467200E-03 (4,36) -2.743299E-02 (4,54) 0.251329 (4,56) -0.216429
(4,56): (3,56) -1.154608E-02 (4,55) 0.216429 (4,57) -0.241969 (4,75) 3.708778E-02
(4,57): (3,57) -3.005255E-02 (4,38) -2.829326E-02 (4,56) 0.241969 (4,58) -0.183625
(4,58): (3,58) -4.082980E-02 (4,57) 0.183625 (4,59) -0.178309 (4,77) 3.551466E-02
(4,59): (3,59) -8.653803E-02 (4,40) -2.283559E-04 (4,58) 0.178309 (4,60) -9.154111E-02
(4,60): (3,60) -9.663293E-02 (4,59) 9.154111E-02 (4,79) 5.092436E-03
(4,61): (3,61) 7.309363E-02 (4,42) -1.397276E-03 (4,62) -7.169529E-02
(4,62): (3,62) 6.551740E-02 (4,61) 7.169529E-02 (4,63) -0.142176 (4,81) 4.960095E-03
(4,63): (3,63) 3.144279E-02 (4,44) -2.801356E-02 (4,62) 0.142176 (4,64) -0.145604
(4,64): (3,64) 2.371554E-02 (4,63) 0.145604 (4,65) -0.202941 (4,83) 3.362040E-02
(4,65): (3,65) 9.636899E-03 (4,46) -3.264575E-02 (4,64) 0.202941 (4,66) -0.179936
(4,66): (3,66) 6.866717E-03 (4,65) 0.179936 (4,67) -0.225406 (4,85) 3.860188E-02
(4,67): (3,67) 2.686182E-03 (4,48) -3.084490E-02 (4,66) 0.225406 (4,68) -0.197250
(4,68): (3,68) 1.853708E-03 (4,67) 0.197250 (4,69) -0.235684 (4,87) 3.657946E-02
(4,69): (3,69) 6.875626E-04 (4,50) -2.899223E-02 (4,68) 0.235684 (4,70) -0.207379
(4,70): (3,70) 3.803743E-04 (4,69) 0.207379 (4,71) -0.242339 (4,89) 3.457979E-02
(4,71): (3,71) -1.849773E-04 (4,52) -2.922076E-02 (4,70) 0.242339 (4,72) -0.212934
(4,72): (3,72) -5.343298E-04 (4,71) 0.212934 (4,73) -0.247304 (4,91) 3.490443E-02
(4,73): (3,73) -1.867494E-03 (4,54) -3.228561E-02 (4,72) 0.247304 (4,74) -0.213154
(4,74): (3,74) -2.916326E-03 (4,73) 0.213154 (4,75) -0.248213 (4,93) 3.797588E-02
(4,75): (3,75) -7.995768E-03 (4,56) -3.708778E-02 (4,74) 0.248213 (4,76) -0.203126
(4,76): (3,76) -1.148576E-02 (4,75) 0.203126 (4,77) -0.233496 (4,95) 4.186008E-02
(4,77): (3,77) -2.893783E-02 (4,58) -3.551466E-02 (4,76) 0.233496 (4,78) -0.169044
(4,78): (3,78) -3.853622E-02 (4,77) 0.169044 (4,79) -0.168806 (4,97) 3.829971E-02
(4,79): (3,79) -8.075514E-02 (4,60) -5.092436E-03 (4,78) 0.168806 (4,80) -8.295480E-02
(4,80): (3,80) -9.029971E-02 (4,79) 8.295480E-02 (4,99) 7.346918E-03
(4,81): (3,81) 7.843001E-02 (4,62) -4.960095E-03 (4,82) -7.346810E-02
(4,82): (3,82) 7.012189E-02 (4,81) 7.346810E-02 (4,83) -0.150677 (4,101) 7.081691E-03
(4,83): (3,83) 3.353929E-02 (4,64) -3.362040E-02 (4,82) 0.150677 (4,84) -0.150595
(4,84): (3,84) 2.526284E-02 (4,83) 0.150595 (4,85) -0.213074 (4,103) 3.721471E-02
(4,85): (3,85) 1.016201E-02 (4,66) -3.860188E-02 (4,84) 0.213074 (4,86) -0.184639
(4,86): (3,86) 7.240122E-03 (4,85) 0.184639 (4,87) -0.233925 (4,105) 4.204468E-02
(4,87): (3,87) 2.746007E-03 (4,68) -3.657946E-02 (4,86) 0.233925 (4,88) -0.200094
(4,88): (3,88) 1.894902E-03 (4,87) 0.200094 (4,89) -0.241437 (4,107) 3.944814E-02
(4,89): (3,89) 6.238048E-04 (4,70) -3.457979E-02 (4,88) 0.241437 (4,90) -0.207480
(4,90): (3,90) 3.327849E-04 (4,89) 0.207480 (4,91) -0.244824 (4,109) 3.701204E-02
(4,91): (3,91) -2.897755E-04 (4,72) -3.490443E-02 (4,90) 0.244824 (4,92) -0.209629
(4,92): (3,92) -5.983318E-04 (4,91) 0.209629 (4,93) -0.246049 (4,111) 3.701910E-02
(4,93): (3,93) -1.949498E-03 (4,74) -3.797588E-02 (4,92) 0.246049 (4,94) -0.206127
(4,94): (3,94) -2.878677E-03 (4,93) 0.206127 (4,95) -0.242783 (4,113) 3.953694E-02
(4,95): (3,95) -7.728017E-03 (4,76) -4.186008E-02 (4,94) 0.242783 (4,96) -0.193192
(4,96): (3,96) -1.089823E-02 (4,95) 0.193192 (4,97) -0.224616 (4,115) 4.232604E-02
(4,97): (3,97) -2.723334E-02 (4,78) -3.829971E-02 (4,96) 0.224616 (4,98) -0.159084
(4,98): (3,98) -3.617739E-02 (4,97) 0.159084 (4,99) -0.160541 (4,117) 3.763473E-02
(4,99): (3,99) -7.569809E-02 (4,80) -7.346918E-03 (4,98) 0.160541 (4,100) -7.749211E-02
(4,100): (3,100) -8.473388E-02 (4,99) 7.749211E-02 (4,119) 7.244337E-03
(4,101): (3,101) 8.366227E-02 (4,82) -7.081691E-03 (4,102) -7.657901E-02
(4,102): (3,102) 7.474806E-02 (4,101) 7.657901E-02 (4,103) -0.158674 (4,121) 7.340655E-03
(4,103): (3,103) 3.574262E-02 (4,84) -3.721471E-02 (4,102) 0.158674 (4,104) -0.157201
(4,104): (3,104) 2.692726E-02 (4,103) 0.157201 (4,105) -0.222379 (4,123) 3.824904E-02
(4,105): (3,105) 1.080613E-02 (4,86) -4.204468E-02 (4,104) 0.222379 (4,106) -0.191144
(4,106): (3,106) 7.697932E-03 (4,105) 0.191144 (4,107) -0.241132 (4,125) 4.229045E-02
(4,107): (3,107) 2.894621E-03 (4,88) -3.944814E-02 (4,106) 0.241132 (4,108) -0.204580
(4,108): (3,108) 1.993238E-03 (4,107) 0.204580 (4,109) -0.245367 (4,127) 3.879539E-02
(4,109): (3,109) 6.385748E-04 (4,90) -3.701204E-02 (4,108) 0.245367 (4,110) -0.208992
(4,110): (3,110) 3.426898E-04 (4,109) 0.208992 (4,111) -0.245144 (4,129) 3.581079E-02
(4,111): (3,111) -2.944656E-04 (4,92) -3.701910E-02 (4,110) 0.245144 (4,112) -0.207827
(4,112): (3,112) -5.805832E-04 (4,111) 0.207827 (4,113) -0.242655 (4,131) 3.540988E-02
(4,113): (3,113) -1.876363E-03 (4,94) -3.953694E-02 (4,112) 0.242655 (4,114) -0.201241
(4,114): (3,114) -2.731070E-03 (4,113) 0.201241 (4,115) -0.235848 (4,133) 3.734130E-02
(4,115): (3,115) -7.291192E-03 (4,96) -4.232604E-02 (4,114) 0.235848 (4,116) -0.186229
(4,116): (3,116) -1.024343E-02 (4,115) 0.186229 (4,117) -0.215324 (4,135) 3.934206E-02
(4,117): (3,117) -2.555871E-02 (4,98) -3.763473E-02 (4,116) 0.215324 (4,118) -0.152134
(4,118): (3,118) -3.393617E-02 (4,117) 0.152134 (4,119) -0.152479 (4,137) 3.428022E-02
(4,119): (3,119) -7.102234E-02 (4,100) -7.244337E-03 (4,118) 0.152479 (4,120) -7.421322E-02
(4,120): (3,120) -7.944786E-02 (4,119) 7.421322E-02 (4,139) 5.236196E-03
(4,121): (3,121) 8.917029E-02 (4,102) -7.340655E-03 (4,122) -8.182831E-02
(4,122): (3,122) 7.977174E-02 (4,121) 8.182831E-02 (4,123) -0.166594 (4,141) 4.987839E-03
(4,123): (3,123) 3.814083E-02 (4,104) -3.824904E-02 (4,122) 0.166594 (4,124) -0.166486
(4,124): (3,124) 2.875270E-02 (4,123) 0.166486 (4,125) -0.231040 (4,143) 3.580098E-02
(4,125): (3,125) 1.150833E-02 (4,106) -4.229045E-02 (4,124) 0.231040 (4,126) -0.200258
(4,126): (3,126) 8.159942E-03 (4,125) 0.200258 (4,127) -0.246854 (4,145) 3.843644E-02
(4,127): (3,127) 3.049372E-03 (4,108) -3.879539E-02 (4,126) 0.246854 (4,128) -0.211106
(4,128): (3,128) 2.072414E-03 (4,127) 0.211106 (4,129) -0.247262 (4,147) 3.408653E-02
(4,129): (3,129) 6.616012E-04 (4,110) -3.581079E-02 (4,128) 0.247262 (4,130) -0.212114
(4,130): (3,130) 3.519695E-04 (4,129) 0.212114 (4,131) -0.243337 (4,149) 3.087219E-02
(4,131): (3,131) -2.752914E-04 (4,112) -3.540988E-02 (4,130) 0.243337 (4,132) -0.207649
(4,132): (3,132) -5.478965E-04 (4,131) 0.207649 (4,133) -0.237423 (4,151) 3.032425E-02
(4,133): (3,133) -1.769471E-03 (4,114) -3.734130E-02 (4,132) 0.237423 (4,134) -0.198308
(4,134): (3,134) -2.566920E-03 (4,133) 0.198308 (4,135) -0.227625 (4,153) 3.188757E-02
(4,135): (3,135) -6.837322E-03 (4,116) -3.934206E-02 (4,134) 0.227625 (4,136) -0.181439
(4,136): (3,136) -9.590062E-03 (4,135) 0.181439 (4,137) -0.205289 (4,155) 3.344440E-02
(4,137): (3,137) -2.391280E-02 (4,118) -3.428022E-02 (4,136) 0.205289 (4,138) -0.147097
(4,138): (3,138) -3.169781E-02 (4,137) 0.147097 (4,139) -0.143977 (4,157) 2.857816E-02
(4,139): (3,139) -6.634003E-02 (4,120) -5.236196E-03 (4,138) 0.143977 (4,140) -7.240535E-02
(4,140): (3,140) -7.401978E-02 (4,139) 7.240535E-02 (4,159) 1.612730E-03
(4,141): (3,141) 9.549199E-02 (4,122) -4.987839E-03 (4,142) -9.050319E-02
(4,142): (3,142) 8.560344E-02 (4,141) 9.050319E-02 (4,143) -0.174923 (4,161) -1.190068E-03
(4,143): (3,143) 4.078260E-02 (4,124) -3.580098E-02 (4,142) 0.174923 (4,144) -0.179903
(4,144): (3,144) 3.052773E-02 (4,143) 0.179903 (4,145) -0.238890 (4,163) 2.846086E-02
(4,145): (3,145) 1.209950E-02 (4,126) -3.843644E-02 (4,144) 0.238890 (4,146) -0.212556
(4,146): (3,146) 8.364583E-03 (4,145) 0.212556 (4,147) -0.250457 (4,165) 2.953848E-02
(4,147): (3,147) 3.092609E-03 (4,128) -3.408653E-02 (4,146) 0.250457 (4,148) -0.219461
(4,148): (3,148) 2.025825E-03 (4,147) 0.219461 (4,149) -0.246692 (4,167) 2.520840E-02
(4,149): (3,149) 6.420757E-04 (4,130) -3.087219E-02 (4,148) 0.246692 (4,150) -0.216464
(4,150): (3,150) 3.227929E-04 (4,149) 0.216464 (4,151) -0.239343 (4,169) 2.255862E-02
(4,151): (3,151) -2.652668E-04 (4,132) -3.032425E-02 (4,150) 0.239343 (4,152) -0.208754
(4,152): (3,152) -5.268847E-04 (4,151) 0.208754 (4,153) -0.230478 (4,171) 2.225248E-02
(4,153): (3,153) -1.666949E-03 (4,134) -3.188757E-02 (4,152) 0.230478 (4,154) -0.196922
(4,154): (3,154) -2.416977E-03 (4,153) 0.196922 (4,155) -0.218092 (4,173) 2.359115E-02
(4,155): (3,155) -6.394676E-03 (4,136) -3.344440E-02 (4,154) 0.218092 (4,156) -0.178245
(4,156): (3,156) -8.958433E-03 (4,155) 0.178245 (4,157) -0.194110 (4,175) 2.482615E-02
(4,157): (3,157) -2.224322E-02 (4,138) -2.857816E-02 (4,156) 0.194110 (4,158) -0.143284
(4,158): (3,158) -2.940665E-02 (4,157) 0.143284 (4,159) -0.134429 (4,177) 2.055172E-02
(4,159): (3,159) -6.138086E-02 (4,140) -1.612730E-03 (4,158) 0.134429 (4,160) -7.143683E-02
(4,160): (3,160) -6.821298E-02 (4,159) 7.143683E-02 (4,179) -3.228039E-03
(4,161): (3,161) 0.102696 (4,142) 1.190068E-03 (4,162) -0.103890
(4,162): (3,162) 9.118333E-02 (4,161) 0.103890 (4,163) -0.184431 (4,181) -1.064527E-02
(4,163): (3,163) 4.264715E-02 (4,144) -2.846086E-02 (4,162) 0.184431 (4,164) -0.198615
(4,164): (3,164) 3.035389E-02 (4,163) 0.198615 (4,165) -0.244994 (4,183) 1.602703E-02
(4,165): (3,165) 1.182423E-02 (4,146) -2.953848E-02 (4,164) 0.244994 (4,166) -0.227277
(4,166): (3,166) 7.677614E-03 (4,165) 0.227277 (4,167) -0.250761 (4,185) 1.580830E-02
(4,167): (3,167) 2.810103E-03 (4,148) -2.520840E-02 (4,166) 0.250761 (4,168) -0.228358
(4,168): (3,168) 1.729731E-03 (4,167) 0.228358 (4,169) -0.243215 (4,187) 1.312907E-02
(4,169): (3,169) 5.337885E-04 (4,150) -2.255862E-02 (4,168) 0.243215 (4,170) -0.221190
(4,170): (3,170) 2.302152E-04 (4,169) 0.221190 (4,171) -0.233243 (4,189) 1.182415E-02
(4,171): (3,171) -2.883425E-04 (4,152) -2.225248E-02 (4,170) 0.233243 (4,172) -0.210706
(4,172): (3,172) -5.446990E-04 (4,171) 0.210706 (4,173) -0.222038 (4,191) 1.187673E-02
(4,173): (3,173) -1.612430E-03 (4,154) -2.359115E-02 (4,172) 0.222038 (4,174) -0.196839
(4,174): (3,174) -2.354054E-03 (4,173) 0.196839 (4,175) -0.207279 (4,193) 1.279409E-02
(4,175): (3,175) -6.064844E-03 (4,156) -2.482615E-02 (4,174) 0.207279 (4,176) -0.176386
(4,176): (3,176) -8.542769E-03 (4,175) 0.176386 (4,177) -0.181331 (4,195) 1.348758E-02
(4,177): (3,177) -2.073888E-02 (4,158) -2.055172E-02 (4,176) 0.181331 (4,178) -0.140042
(4,178): (3,178) -2.746231E-02 (4,177) 0.140042 (4,179) -0.122867 (4,197) 1.028632E-02
(4,179): (3,179) -5.629506E-02 (4,160) 3.228039E-03 (4,178) 0.122867 (4,180) -6.980098E-02
(4,180): (3,180) -6.251750E-02 (4,179) 6.980098E-02 (4,199) -7.285090E-03
(4,181): (3,181) 0.104863 (4,162) 1.064527E-02 (4,182) -0.115503
(4,182): (3,182) 8.506742E-02 (4,181) 0.115503 (4,183) -0.200574
(4,183): (3,183) 3.835375E-02 (4,164) -1.602703E-02 (4,182) 0.200574 (4,184) -0.222900
(4,184): (3,184) 2.456803E-02 (4,183) 0.222900 (4,185) -0.247468
(4,185): (3,185) 9.502751E-03 (4,166) -1.580830E-02 (4,184) 0.247468 (4,186) -0.241160
(4,186): (3,186) 5.684856E-03 (4,185) 0.241160 (4,187) -0.246845
(4,187): (3,187) 2.087727E-03 (4,168) -1.312907E-02 (4,186) 0.246845 (4,188) -0.235801
(4,188): (3,188) 1.192127E-03 (4,187) 0.235801 (4,189) -0.236993
(4,189): (3,189) 3.320949E-04 (4,170) -1.182415E-02 (4,188) 0.236993 (4,190) -0.225499
(4,190): (3,190) 7.116854E-05 (4,189) 0.225499 (4,191) -0.225570
(4,191): (3,191) -3.816924E-04 (4,172) -1.187673E-02 (4,190) 0.225570 (4,192) -0.213313
(4,192): (3,192) -6.780964E-04 (4,191) 0.213313 (4,193) -0.212634
(4,193): (3,193) -1.761323E-03 (4,174) -1.279409E-02 (4,192) 0.212634 (4,194) -0.198085
(4,194): (3,194) -2.677613E-03 (4,193) 0.198085 (4,195) -0.195407
(4,195): (3,195) -6.366324E-03 (4,176) -1.348758E-02 (4,194) 0.195407 (4,196) -0.175557
(4,196): (3,196) -9.320035E-03 (4,195) 0.175557 (4,197) -0.166237
[...]
       1.0000E+30  1.0000E+30  1.0000E+30  1.0000E+30  1.0000E+30  1.0000E+30  1.0000E+30  1.0000E+30   5.269       5.000    
        10.00       9.808       9.454       9.315       9.028       8.895       8.613       8.475       8.183       8.037    
        7.733       7.580       7.261       7.099       6.757       6.581       6.184       5.961       5.335       5.000    
        10.00       9.784       9.381       9.243       8.934       8.803       8.504       8.367       8.063       7.920    
        7.605       7.455       7.127       6.972       6.622       6.458       6.059       5.873       5.305       5.000    
        10.00       9.766       9.330       9.186       8.857       8.723       8.410       8.273       7.958       7.816    
        7.494       7.348       7.017       6.868       6.522       6.369       5.985       5.815       5.285       5.000    
        10.00       9.750       9.284       9.135       8.788       8.650       8.325       8.185       7.862       7.720    
        7.395       7.251       6.922       6.778       6.440       6.295       5.928       5.769       5.268       5.000    
        10.00       9.735       9.241       9.084       8.720       8.577       8.241       8.099       7.770       7.627    
        7.301       7.159       6.834       6.694       6.366       6.227       5.876       5.725       5.253       5.000    
        10.00       9.719       9.195       9.029       8.648       8.499       8.154       8.007       7.675       7.530    
        7.207       7.065       6.747       6.609       6.293       6.158       5.825       5.680       5.237       5.000    
        10.00       9.699       9.142       8.962       8.565       8.406       8.055       7.902       7.572       7.424    
        7.106       6.963       6.654       6.518       6.215       6.084       5.769       5.631       5.220       5.000    
        10.00       9.672       9.068       8.864       8.459       8.288       7.938       7.779       7.454       7.303    
        6.993       6.849       6.552       6.415       6.128       5.998       5.705       5.572       5.199       5.000    
        10.00       9.528       8.932       8.707       8.316       8.137       7.798       7.634       7.319       7.164    
        6.865       6.719       6.434       6.296       6.025       5.894       5.624       5.492       5.173       5.000    
1
  HEAD IN LAYER   2 AT END OF TIME STEP   1 IN STRESS PERIOD    1
  ---------------------------------------------------------------------------

            1           2           3           4           5           6           7           8           9          10
           11          12          13          14          15          16          17          18          19          20
           21          22          23          24          25          26          27          28          29          30
           31          32          33          34          35          36          37          38          39          40
           41          42          43          44          45          46          47          48          49          50
           51          52          53          54          55          56          57          58          59          60
           61          62          63          64          65          66          67          68          69          70
           71          72          73          74          75          76          77          78          79          80
           81          82          83          84          85          86          87          88          89          90
           91          92          93          94          95          96          97          98          99         100
          101         102         103         104         105         106         107         108         109         110
          111         112         113         114         115         116         117         118         119         120
          121         122         123         124         125         126         127         128         129         130
          131         132         133         134         135         136         137         138         139         140
          141         142         143         144         145         146         147         148         149         150
          151         152         153         154         155         156         157         158         159         160
          161         162         163         164         165         166         167         168         169         170
          171         172         173         174         175         176         177         178         179         180
          181         182         183         184         185         186         187         188         189         190
          191         192         193         194         195         196         197         198         199         200
 ........................................................................................................................
   1    9.770       9.705       9.444       9.333       9.091       8.972       8.712       8.579       8.301       8.158    
        7.863       7.711       7.400       7.240       6.910       6.738       6.376       6.172       5.666       5.526    
        9.726       9.647       9.390       9.277       9.007       8.883       8.604       8.469       8.177       8.034    
        7.728       7.578       7.257       7.098       6.758       6.589       6.214       6.032       5.606       5.480    
        9.691       9.609       9.328       9.210       8.922       8.795       8.500       8.365       8.061       7.919    
        7.604       7.456       7.128       6.975       6.631       6.473       6.103       5.945       5.556       5.443    
        9.664       9.577       9.274       9.152       8.845       8.715       8.407       8.271       7.957       7.815    
        7.494       7.349       7.019       6.871       6.531       6.383       6.028       5.883       5.518       5.414    
        9.639       9.547       9.225       9.098       8.775       8.642       8.322       8.183       7.862       7.720    
        7.395       7.252       6.924       6.781       6.449       6.309       5.968       5.832       5.487       5.389    
        9.616       9.519       9.178       9.044       8.707       8.568       8.238       8.097       7.769       7.627    
        7.302       7.159       6.836       6.697       6.374       6.240       5.914       5.784       5.458       5.366    
        9.591       9.488       9.128       8.986       8.634       8.489       8.151       8.005       7.675       7.530    
        7.207       7.065       6.749       6.612       6.301       6.170       5.860       5.736       5.429       5.341    
        9.563       9.451       9.070       8.916       8.550       8.396       8.052       7.900       7.571       7.423    
        7.106       6.963       6.656       6.520       6.222       6.095       5.802       5.683       5.397       5.314    
        9.525       9.399       8.991       8.818       8.444       8.279       7.935       7.777       7.453       7.302    
        6.993       6.849       6.554       6.418       6.135       6.008       5.736       5.620       5.361       5.282    
        9.456       9.285       8.865       8.672       8.304       8.131       7.796       7.633       7.318       7.164    
        6.865       6.720       6.436       6.299       6.032       5.905       5.654       5.540       5.316       5.242    
1
  HEAD IN LAYER   3 AT END OF TIME STEP   1 IN STRESS PERIOD    1
  ---------------------------------------------------------------------------

            1           2           3           4           5           6           7           8           9          10
           11          12          13          14          15          16          17          18          19          20
           21          22          23          24          25          26          27          28          29          30
           31          32          33          34          35          36          37          38          39          40
           41          42          43          44          45          46          47          48          49          50
           51          52          53          54          55          56          57          58          59          60
           61          62          63          64          65          66          67          68          69          70
           71          72          73          74          75          76          77          78          79          80
           81          82          83          84          85          86          87          88          89          90
           91          92          93          94          95          96          97          98          99         100
          101         102         103         104         105         106         107         108         109         110
          111         112         113         114         115         116         117         118         119         120
          121         122         123         124         125         126         127         128         129         130
          131         132         133         134         135         136         137         138         139         140
          141         142         143         144         145         146         147         148         149         150
          151         152         153         154         155         156         157         158         159         160
          161         162         163         164         165         166         167         168         169         170
          171         172         173         174         175         176         177         178         179         180
          181         182         183         184         185         186         187         188         189         190
          191         192         193         194         195         196         197         198         199         200
 ........................................................................................................................
   1    9.635       9.586       9.409       9.311       9.083       8.966       8.709       8.577       8.300       8.157    
        7.863       7.711       7.400       7.240       6.914       6.745       6.400       6.226       5.883       5.787    
        9.585       9.531       9.340       9.240       8.991       8.871       8.598       8.465       8.174       8.032    
        7.727       7.576       7.257       7.100       6.765       6.603       6.256       6.104       5.800       5.718    
        9.538       9.483       9.276       9.173       8.907       8.784       8.496       8.362       8.060       7.918    
        7.604       7.456       7.130       6.978       6.642       6.490       6.152       6.017       5.736       5.663    
        9.497       9.441       9.219       9.112       8.830       8.705       8.403       8.268       7.956       7.815    
        7.494       7.349       7.022       6.876       6.543       6.401       6.076       5.951       5.686       5.620    
        9.460       9.402       9.166       9.056       8.759       8.631       8.318       8.181       7.861       7.719    
        7.396       7.253       6.927       6.786       6.460       6.326       6.013       5.896       5.644       5.583    
        9.425       9.364       9.115       9.000       8.690       8.557       8.234       8.094       7.769       7.626    
        7.302       7.160       6.839       6.701       6.385       6.256       5.956       5.844       5.606       5.547    
        9.388       9.323       9.061       8.939       8.617       8.477       8.146       8.002       7.674       7.529    
        7.207       7.066       6.751       6.616       6.311       6.185       5.899       5.792       5.567       5.510    
        9.345       9.274       8.998       8.865       8.532       8.383       8.048       7.897       7.570       7.423    
        7.106       6.964       6.659       6.524       6.232       6.108       5.839       5.734       5.525       5.469    
        9.289       9.207       8.915       8.768       8.426       8.267       7.931       7.775       7.453       7.302    
        6.994       6.850       6.556       6.421       6.144       6.022       5.770       5.668       5.477       5.423    
        9.207       9.108       8.797       8.632       8.290       8.122       7.793       7.631       7.318       7.164    
        6.866       6.721       6.439       6.303       6.042       5.919       5.688       5.589       5.423       5.374    
1
  HEAD IN LAYER   4 AT END OF TIME STEP   1 IN STRESS PERIOD    1
  ---------------------------------------------------------------------------

            1           2           3           4           5           6           7           8           9          10
           11          12          13          14          15          16          17          18          19          20
           21          22          23          24          25          26          27          28          29          30
           31          32          33          34          35          36          37          38          39          40
           41          42          43          44          45          46          47          48          49          50
           51          52          53          54          55          56          57          58          59          60
           61          62          63          64          65          66          67          68          69          70
           71          72          73          74          75          76          77          78          79          80
           81          82          83          84          85          86          87          88          89          90
           91          92          93          94          95          96          97          98          99         100
          101         102         103         104         105         106         107         108         109         110
          111         112         113         114         115         116         117         118         119         120
          121         122         123         124         125         126         127         128         129         130
          131         132         133         134         135         136         137         138         139         140
          141         142         143         144         145         146         147         148         149         150
          151         152         153         154         155         156         157         158         159         160
          161         162         163         164         165         166         167         168         169         170
          171         172         173         174         175         176         177         178         179         180
          181         182         183         184         185         186         187         188         189         190
          191         192         193         194         195         196         197         198         199         200
 ........................................................................................................................
   1    9.573       9.531       9.385       9.294       9.077       8.961       8.708       8.576       8.299       8.157    
        7.862       7.711       7.401       7.241       6.916       6.751       6.419       6.262       5.979       5.899    
        9.522       9.474       9.312       9.219       8.982       8.864       8.594       8.462       8.173       8.031    
        7.726       7.576       7.257       7.101       6.770       6.613       6.284       6.145       5.892       5.822    
        9.470       9.422       9.247       9.151       8.897       8.778       8.493       8.360       8.059       7.917    
        7.604       7.456       7.131       6.981       6.649       6.502       6.182       6.058       5.822       5.760    
        9.424       9.375       9.188       9.089       8.821       8.698       8.401       8.267       7.956       7.815    
        7.495       7.350       7.023       6.878       6.551       6.413       6.104       5.990       5.767       5.710    
        9.382       9.332       9.133       9.031       8.749       8.624       8.315       8.179       7.860       7.719    
        7.396       7.253       6.929       6.788       6.468       6.337       6.040       5.932       5.720       5.667    
        9.341       9.289       9.080       8.973       8.679       8.549       8.231       8.092       7.768       7.626    
        7.302       7.161       6.841       6.704       6.392       6.266       5.982       5.878       5.677       5.626    
        9.299       9.243       9.023       8.910       8.605       8.469       8.143       7.999       7.673       7.529    
        7.208       7.066       6.753       6.618       6.318       6.194       5.923       5.823       5.633       5.584    
        9.250       9.188       8.957       8.835       8.520       8.375       8.044       7.895       7.570       7.422    
        7.106       6.965       6.660       6.526       6.238       6.117       5.861       5.764       5.586       5.538    
        9.187       9.116       8.873       8.737       8.414       8.260       7.929       7.773       7.452       7.302    
        6.994       6.851       6.558       6.424       6.150       6.030       5.791       5.696       5.533       5.486    
        9.102       9.023       8.759       8.607       8.280       8.116       7.791       7.630       7.317       7.164    
        6.866       6.721       6.441       6.306       6.048       5.929       5.709       5.617       5.476       5.435    

 HEAD WILL BE SAVED ON UNIT 1013 AT END OF TIME STEP    1, STRESS PERIOD    1


  VOLUME BUDGET FOR ENTIRE MODEL AT END OF TIME STEP    1, STRESS PERIOD   1
  ---------------------------------------------------------------------------------------------------

     CUMULATIVE VOLUME      L**3       RATES FOR THIS TIME STEP      L**3/T          PACKAGE NAME    
     ------------------                 ------------------------                     ----------------

           IN:                                      IN:
           ---                                      ---
                 CHD =           9.2627                   CHD =           9.2627     CHD_LEFT        
                 CHD =           0.0000                   CHD =           0.0000     CHD_RIGHT       

            TOTAL IN =           9.2627              TOTAL IN =           9.2627

          OUT:                                     OUT:
          ----                                     ----
                 CHD =           0.0000                   CHD =           0.0000     CHD_LEFT        
                 CHD =           9.2626                   CHD =           9.2626     CHD_RIGHT       

           TOTAL OUT =           9.2626             TOTAL OUT =           9.2626

            IN - OUT =       5.9753E-05              IN - OUT =       5.9753E-05

 PERCENT DISCREPANCY =           0.00     PERCENT DISCREPANCY =           0.00




         TIME SUMMARY AT END OF TIME STEP    1 IN STRESS PERIOD    1
                    SECONDS     MINUTES      HOURS       DAYS        YEARS
                    -----------------------------------------------------------
   TIME STEP LENGTH  60.000      1.0000     1.66667E-02 6.94444E-04 1.90129E-06
 STRESS PERIOD TIME  60.000      1.0000     1.66667E-02 6.94444E-04 1.90129E-06
         TOTAL TIME  60.000      1.0000     1.66667E-02 6.94444E-04 1.90129E-06
