 LISTING FILE: p7.LST
                         UNIT   6

 OPENING p7.BAS
 FILE TYPE:BAS   UNIT   1

 OPENING p7.BCF
 FILE TYPE:BCF   UNIT  11

 OPENING p7.WEL
 FILE TYPE:WEL   UNIT  12

 OPENING p7.SIP
 FILE TYPE:SIP   UNIT  19

 OPENING p7.OC
 FILE TYPE:OC   UNIT  22

 OPENING p7.FTL
 FILE TYPE:LMT   UNIT  32

 OPENING p7.UFH
 FILE TYPE:DATA(BINARY)   UNIT  33
1                                 MODFLOW
      U.S. GEOLOGICAL SURVEY MODULAR FINITE-DIFFERENCE GROUND-WATER FLOW MODEL

 MT3DMS benchmark test problem #7                                                
 3D transport in a uniform flow field                                            
    8 LAYERS        15 ROWS        21 COLUMNS
   1 STRESS PERIOD(S) IN SIMULATION
 MODEL TIME UNIT IS DAYS

 BAS5 -- BASIC MODEL PACKAGE, VERSION 5, 1/1/95 INPUT READ FROM UNIT  1
 ARRAYS RHS AND BUFF WILL SHARE MEMORY
 INITIAL HEAD WILL NOT BE KEPT THROUGHOUT THE SIMULATION, WHICH MEANS
 DRAWDOWN CANNOT BE CALCULATED
      22433 ELEMENTS IN X ARRAY ARE USED BY BAS
      22433 ELEMENTS OF X ARRAY USED OUT OF  999999999

 BCF5 -- BLOCK-CENTERED FLOW PACKAGE, VERSION 5, 9/1/93 INPUT READ FROM UNIT 11
 STEADY-STATE SIMULATION
 HEAD AT CELLS THAT CONVERT TO DRY=  0.10000E+31
 WETTING CAPABILITY IS NOT ACTIVE
      LAYER  LAYER-TYPE CODE     INTERBLOCK T
      --------------------------------------------
         1            0          0 -- HARMONIC    
         2            0          0 -- HARMONIC    
         3            0          0 -- HARMONIC    
         4            0          0 -- HARMONIC    
         5            0          0 -- HARMONIC    
         6            0          0 -- HARMONIC    
         7            0          0 -- HARMONIC    
         8            0          0 -- HARMONIC    
          8 ELEMENTS IN X ARRAY ARE USED BY BCF
      22441 ELEMENTS OF X ARRAY USED OUT OF  999999999

 WEL5 -- WELL PACKAGE, VERSION 5, 9/1/93 INPUT READ FROM UNIT 12
 MAXIMUM OF    1 WELLS
          4 ELEMENTS IN X ARRAY ARE USED BY WEL
      22445 ELEMENTS OF X ARRAY USED OUT OF  999999999

 SIP5 -- STRONGLY IMPLICIT PROCEDURE SOLUTION PACKAGE
                    VERSION 5, 9/1/93 INPUT READ FROM UNIT 19
 MAXIMUM OF  50 ITERATIONS ALLOWED FOR CLOSURE
  5 ITERATION PARAMETERS
      10285 ELEMENTS IN X ARRAY ARE USED BY SIP
      32730 ELEMENTS OF X ARRAY USED OUT OF  999999999
1
 MT3DMS benchmark test problem #7                                                
 3D transport in a uniform flow field                                            



                     BOUNDARY ARRAY FOR LAYER   1
 READING ON UNIT   1 WITH FORMAT: (21I3)              

        1   2   3   4   5   6   7   8   9  10  11  12  13  14  15  16  17  18  19  20  21
 ........................................................................................
   1   -1   1   1   1   1   1   1   1   1   1   1   1   1   1   1   1   1   1   1   1  -1
   2   -1   1   1   1   1   1   1   1   1   1   1   1   1   1   1   1   1   1   1   1  -1
   3   -1   1   1   1   1   1   1   1   1   1   1   1   1   1   1   1   1   1   1   1  -1
   4   -1   1   1   1   1   1   1   1   1   1   1   1   1   1   1   1   1   1   1   1  -1
   5   -1   1   1   1   1   1   1   1   1   1   1   1   1   1   1   1   1   1   1   1  -1
   6   -1   1   1   1   1   1   1   1   1   1   1   1   1   1   1   1   1   1   1   1  -1
   7   -1   1   1   1   1   1   1   1   1   1   1   1   1   1   1   1   1   1   1   1  -1
   8   -1   1   1   1   1   1   1   1   1   1   1   1   1   1   1   1   1   1   1   1  -1
   9   -1   1   1   1   1   1   1   1   1   1   1   1   1   1   1   1   1   1   1   1  -1
  10   -1   1   1   1   1   1   1   1   1   1   1   1   1   1   1   1   1   1   1   1  -1
  11   -1   1   1   1   1   1   1   1   1   1   1   1   1   1   1   1   1   1   1   1  -1
  12   -1   1   1   1   1   1   1   1   1   1   1   1   1   1   1   1   1   1   1   1  -1
  13   -1   1   1   1   1   1   1   1   1   1   1   1   1   1   1   1   1   1   1   1  -1
  14   -1   1   1   1   1   1   1   1   1   1   1   1   1   1   1   1   1   1   1   1  -1
  15   -1   1   1   1   1   1   1   1   1   1   1   1   1   1   1   1   1   1   1   1  -1



                     BOUNDARY ARRAY FOR LAYER   2
 READING ON UNIT   1 WITH FORMAT: (21I3)              

        1   2   3   4   5   6   7   8   9  10  11  12  13  14  15  16  17  18  19  20  21
 ........................................................................................
   1   -1   1   1   1   1   1   1   1   1   1   1   1   1   1   1   1   1   1   1   1  -1
   2   -1   1   1   1   1   1   1   1   1   1   1   1   1   1   1   1   1   1   1   1  -1
   3   -1   1   1   1   1   1   1   1   1   1   1   1   1   1   1   1   1   1   1   1  -1
   4   -1   1   1   1   1   1   1   1   1   1   1   1   1   1   1   1   1   1   1   1  -1
   5   -1   1   1   1   1   1   1   1   1   1   1   1   1   1   1   1   1   1   1   1  -1
   6   -1   1   1   1   1   1   1   1   1   1   1   1   1   1   1   1   1   1   1   1  -1
   7   -1   1   1   1   1   1   1   1   1   1   1   1   1   1   1   1   1   1   1   1  -1
   8   -1   1   1   1   1   1   1   1   1   1   1   1   1   1   1   1   1   1   1   1  -1
   9   -1   1   1   1   1   1   1   1   1   1   1   1   1   1   1   1   1   1   1   1  -1
  10   -1   1   1   1   1   1   1   1   1   1   1   1   1   1   1   1   1   1   1   1  -1
  11   -1   1   1   1   1   1   1   1   1   1   1   1   1   1   1   1   1   1   1   1  -1
  12   -1   1   1   1   1   1   1   1   1   1   1   1   1   1   1   1   1   1   1   1  -1
  13   -1   1   1   1   1   1   1   1   1   1   1   1   1   1   1   1   1   1   1   1  -1
  14   -1   1   1   1   1   1   1   1   1   1   1   1   1   1   1   1   1   1   1   1  -1
  15   -1   1   1   1   1   1   1   1   1   1   1   1   1   1   1   1   1   1   1   1  -1



                     BOUNDARY ARRAY FOR LAYER   3
 READING ON UNIT   1 WITH FORMAT: (21I3)              

        1   2   3   4   5   6   7   8   9  10  11  12  13  14  15  16  17  18  19  20  21
 ........................................................................................
   1   -1   1   1   1   1   1   1   1   1   1   1   1   1   1   1   1   1   1   1   1  -1
   2   -1   1   1   1   1   1   1   1   1   1   1   1   1   1   1   1   1   1   1   1  -1
   3   -1   1   1   1   1   1   1   1   1   1   1   1   1   1   1   1   1   1   1   1  -1
   4   -1   1   1   1   1   1   1   1   1   1   1   1   1   1   1   1   1   1   1   1  -1
   5   -1   1   1   1   1   1   1   1   1   1   1   1   1   1   1   1   1   1   1   1  -1
   6   -1   1   1   1   1   1   1   1   1   1   1   1   1   1   1   1   1   1   1   1  -1
   7   -1   1   1   1   1   1   1   1   1   1   1   1   1   1   1   1   1   1   1   1  -1
   8   -1   1   1   1   1   1   1   1   1   1   1   1   1   1   1   1   1   1   1   1  -1
   9   -1   1   1   1   1   1   1   1   1   1   1   1   1   1   1   1   1   1   1   1  -1
  10   -1   1   1   1   1   1   1   1   1   1   1   1   1   1   1   1   1   1   1   1  -1
  11   -1   1   1   1   1   1   1   1   1   1   1   1   1   1   1   1   1   1   1   1  -1
  12   -1   1   1   1   1   1   1   1   1   1   1   1   1   1   1   1   1   1   1   1  -1
  13   -1   1   1   1   1   1   1   1   1   1   1   1   1   1   1   1   1   1   1   1  -1
  14   -1   1   1   1   1   1   1   1   1   1   1   1   1   1   1   1   1   1   1   1  -1
  15   -1   1   1   1   1   1   1   1   1   1   1   1   1   1   1   1   1   1   1   1  -1



                     BOUNDARY ARRAY FOR LAYER   4
 READING ON UNIT   1 WITH FORMAT: (21I3)              

        1   2   3   4   5   6   7   8   9  10  11  12  13  14  15  16  17  18  19  20  21
 ........................................................................................
   1   -1   1   1   1   1   1   1   1   1   1   1   1   1   1   1   1   1   1   1   1  -1
   2   -1   1   1   1   1   1   1   1   1   1   1   1   1   1   1   1   1   1   1   1  -1
   3   -1   1   1   1   1   1   1   1   1   1   1   1   1   1   1   1   1   1   1   1  -1
   4   -1   1   1   1   1   1   1   1   1   1   1   1   1   1   1   1   1   1   1   1  -1
   5   -1   1   1   1   1   1   1   1   1   1   1   1   1   1   1   1   1   1   1   1  -1
   6   -1   1   1   1   1   1   1   1   1   1   1   1   1   1   1   1   1   1   1   1  -1
   7   -1   1   1   1   1   1   1   1   1   1   1   1   1   1   1   1   1   1   1   1  -1
   8   -1   1   1   1   1   1   1   1   1   1   1   1   1   1   1   1   1   1   1   1  -1
   9   -1   1   1   1   1   1   1   1   1   1   1   1   1   1   1   1   1   1   1   1  -1
  10   -1   1   1   1   1   1   1   1   1   1   1   1   1   1   1   1   1   1   1   1  -1
  11   -1   1   1   1   1   1   1   1   1   1   1   1   1   1   1   1   1   1   1   1  -1
  12   -1   1   1   1   1   1   1   1   1   1   1   1   1   1   1   1   1   1   1   1  -1
  13   -1   1   1   1   1   1   1   1   1   1   1   1   1   1   1   1   1   1   1   1  -1
  14   -1   1   1   1   1   1   1   1   1   1   1   1   1   1   1   1   1   1   1   1  -1
  15   -1   1   1   1   1   1   1   1   1   1   1   1   1   1   1   1   1   1   1   1  -1



                     BOUNDARY ARRAY FOR LAYER   5
 READING ON UNIT   1 WITH FORMAT: (21I3)              

        1   2   3   4   5   6   7   8   9  10  11  12  13  14  15  16  17  18  19  20  21
 ........................................................................................
   1   -1   1   1   1   1   1   1   1   1   1   1   1   1   1   1   1   1   1   1   1  -1
   2   -1   1   1   1   1   1   1   1   1   1   1   1   1   1   1   1   1   1   1   1  -1
   3   -1   1   1   1   1   1   1   1   1   1   1   1   1   1   1   1   1   1   1   1  -1
   4   -1   1   1   1   1   1   1   1   1   1   1   1   1   1   1   1   1   1   1   1  -1
   5   -1   1   1   1   1   1   1   1   1   1   1   1   1   1   1   1   1   1   1   1  -1
   6   -1   1   1   1   1   1   1   1   1   1   1   1   1   1   1   1   1   1   1   1  -1
   7   -1   1   1   1   1   1   1   1   1   1   1   1   1   1   1   1   1   1   1   1  -1
   8   -1   1   1   1   1   1   1   1   1   1   1   1   1   1   1   1   1   1   1   1  -1
   9   -1   1   1   1   1   1   1   1   1   1   1   1   1   1   1   1   1   1   1   1  -1
  10   -1   1   1   1   1   1   1   1   1   1   1   1   1   1   1   1   1   1   1   1  -1
  11   -1   1   1   1   1   1   1   1   1   1   1   1   1   1   1   1   1   1   1   1  -1
  12   -1   1   1   1   1   1   1   1   1   1   1   1   1   1   1   1   1   1   1   1  -1
  13   -1   1   1   1   1   1   1   1   1   1   1   1   1   1   1   1   1   1   1   1  -1
  14   -1   1   1   1   1   1   1   1   1   1   1   1   1   1   1   1   1   1   1   1  -1
  15   -1   1   1   1   1   1   1   1   1   1   1   1   1   1   1   1   1   1   1   1  -1



                     BOUNDARY ARRAY FOR LAYER   6
 READING ON UNIT   1 WITH FORMAT: (21I3)              

        1   2   3   4   5   6   7   8   9  10  11  12  13  14  15  16  17  18  19  20  21
 ........................................................................................
   1   -1   1   1   1   1   1   1   1   1   1   1   1   1   1   1   1   1   1   1   1  -1
   2   -1   1   1   1   1   1   1   1   1   1   1   1   1   1   1   1   1   1   1   1  -1
   3   -1   1   1   1   1   1   1   1   1   1   1   1   1   1   1   1   1   1   1   1  -1
   4   -1   1   1   1   1   1   1   1   1   1   1   1   1   1   1   1   1   1   1   1  -1
   5   -1   1   1   1   1   1   1   1   1   1   1   1   1   1   1   1   1   1   1   1  -1
   6   -1   1   1   1   1   1   1   1   1   1   1   1   1   1   1   1   1   1   1   1  -1
   7   -1   1   1   1   1   1   1   1   1   1   1   1   1   1   1   1   1   1   1   1  -1
   8   -1   1   1   1   1   1   1   1   1   1   1   1   1   1   1   1   1   1   1   1  -1
   9   -1   1   1   1   1   1   1   1   1   1   1   1   1   1   1   1   1   1   1   1  -1
  10   -1   1   1   1   1   1   1   1   1   1   1   1   1   1   1   1   1   1   1   1  -1
  11   -1   1   1   1   1   1   1   1   1   1   1   1   1   1   1   1   1   1   1   1  -1
  12   -1   1   1   1   1   1   1   1   1   1   1   1   1   1   1   1   1   1   1   1  -1
  13   -1   1   1   1   1   1   1   1   1   1   1   1   1   1   1   1   1   1   1   1  -1
  14   -1   1   1   1   1   1   1   1   1   1   1   1   1   1   1   1   1   1   1   1  -1
  15   -1   1   1   1   1   1   1   1   1   1   1   1   1   1   1   1   1   1   1   1  -1



                     BOUNDARY ARRAY FOR LAYER   7
 READING ON UNIT   1 WITH FORMAT: (21I3)              

        1   2   3   4   5   6   7   8   9  10  11  12  13  14  15  16  17  18  19  20  21
 ........................................................................................
   1   -1   1   1   1   1   1   1   1   1   1   1   1   1   1   1   1   1   1   1   1  -1
   2   -1   1   1   1   1   1   1   1   1   1   1   1   1   1   1   1   1   1   1   1  -1
   3   -1   1   1   1   1   1   1   1   1   1   1   1   1   1   1   1   1   1   1   1  -1
   4   -1   1   1   1   1   1   1   1   1   1   1   1   1   1   1   1   1   1   1   1  -1
   5   -1   1   1   1   1   1   1   1   1   1   1   1   1   1   1   1   1   1   1   1  -1
   6   -1   1   1   1   1   1   1   1   1   1   1   1   1   1   1   1   1   1   1   1  -1
   7   -1   1   1   1   1   1   1   1   1   1   1   1   1   1   1   1   1   1   1   1  -1
   8   -1   1   1   1   1   1   1   1   1   1   1   1   1   1   1   1   1   1   1   1  -1
   9   -1   1   1   1   1   1   1   1   1   1   1   1   1   1   1   1   1   1   1   1  -1
  10   -1   1   1   1   1   1   1   1   1   1   1   1   1   1   1   1   1   1   1   1  -1
  11   -1   1   1   1   1   1   1   1   1   1   1   1   1   1   1   1   1   1   1   1  -1
  12   -1   1   1   1   1   1   1   1   1   1   1   1   1   1   1   1   1   1   1   1  -1
  13   -1   1   1   1   1   1   1   1   1   1   1   1   1   1   1   1   1   1   1   1  -1
  14   -1   1   1   1   1   1   1   1   1   1   1   1   1   1   1   1   1   1   1   1  -1
  15   -1   1   1   1   1   1   1   1   1   1   1   1   1   1   1   1   1   1   1   1  -1



                     BOUNDARY ARRAY FOR LAYER   8
 READING ON UNIT   1 WITH FORMAT: (21I3)              

        1   2   3   4   5   6   7   8   9  10  11  12  13  14  15  16  17  18  19  20  21
 ........................................................................................
   1   -1   1   1   1   1   1   1   1   1   1   1   1   1   1   1   1   1   1   1   1  -1
   2   -1   1   1   1   1   1   1   1   1   1   1   1   1   1   1   1   1   1   1   1  -1
   3   -1   1   1   1   1   1   1   1   1   1   1   1   1   1   1   1   1   1   1   1  -1
   4   -1   1   1   1   1   1   1   1   1   1   1   1   1   1   1   1   1   1   1   1  -1
   5   -1   1   1   1   1   1   1   1   1   1   1   1   1   1   1   1   1   1   1   1  -1
   6   -1   1   1   1   1   1   1   1   1   1   1   1   1   1   1   1   1   1   1   1  -1
   7   -1   1   1   1   1   1   1   1   1   1   1   1   1   1   1   1   1   1   1   1  -1
   8   -1   1   1   1   1   1   1   1   1   1   1   1   1   1   1   1   1   1   1   1  -1
   9   -1   1   1   1   1   1   1   1   1   1   1   1   1   1   1   1   1   1   1   1  -1
  10   -1   1   1   1   1   1   1   1   1   1   1   1   1   1   1   1   1   1   1   1  -1
  11   -1   1   1   1   1   1   1   1   1   1   1   1   1   1   1   1   1   1   1   1  -1
  12   -1   1   1   1   1   1   1   1   1   1   1   1   1   1   1   1   1   1   1   1  -1
  13   -1   1   1   1   1   1   1   1   1   1   1   1   1   1   1   1   1   1   1   1  -1
  14   -1   1   1   1   1   1   1   1   1   1   1   1   1   1   1   1   1   1   1   1  -1
  15   -1   1   1   1   1   1   1   1   1   1   1   1   1   1   1   1   1   1   1   1  -1

 AQUIFER HEAD WILL BE SET TO  999.99     AT ALL NO-FLOW NODES (IBOUND=0).



                       INITIAL HEAD FOR LAYER   1
 READING ON UNIT   1 WITH FORMAT: (21F3.0)            

           1       2       3       4       5       6       7       8       9      10      11      12      13      14      15
          16      17      18      19      20      21
 ...........................................................................................................................
   1    80.00   79.00   78.00   77.00   76.00   75.00   74.00   73.00   72.00   71.00   70.00   69.00   68.00   67.00   66.00
        65.00   64.00   63.00   62.00   61.00   60.00
   2    80.00   79.00   78.00   77.00   76.00   75.00   74.00   73.00   72.00   71.00   70.00   69.00   68.00   67.00   66.00
        65.00   64.00   63.00   62.00   61.00   60.00
   3    80.00   79.00   78.00   77.00   76.00   75.00   74.00   73.00   72.00   71.00   70.00   69.00   68.00   67.00   66.00
        65.00   64.00   63.00   62.00   61.00   60.00
   4    80.00   79.00   78.00   77.00   76.00   75.00   74.00   73.00   72.00   71.00   70.00   69.00   68.00   67.00   66.00
        65.00   64.00   63.00   62.00   61.00   60.00
   5    80.00   79.00   78.00   77.00   76.00   75.00   74.00   73.00   72.00   71.00   70.00   69.00   68.00   67.00   66.00
        65.00   64.00   63.00   62.00   61.00   60.00
   6    80.00   79.00   78.00   77.00   76.00   75.00   74.00   73.00   72.00   71.00   70.00   69.00   68.00   67.00   66.00
        65.00   64.00   63.00   62.00   61.00   60.00
   7    80.00   79.00   78.00   77.00   76.00   75.00   74.00   73.00   72.00   71.00   70.00   69.00   68.00   67.00   66.00
        65.00   64.00   63.00   62.00   61.00   60.00
   8    80.00   79.00   78.00   77.00   76.00   75.00   74.00   73.00   72.00   71.00   70.00   69.00   68.00   67.00   66.00
        65.00   64.00   63.00   62.00   61.00   60.00
   9    80.00   79.00   78.00   77.00   76.00   75.00   74.00   73.00   72.00   71.00   70.00   69.00   68.00   67.00   66.00
        65.00   64.00   63.00   62.00   61.00   60.00
  10    80.00   79.00   78.00   77.00   76.00   75.00   74.00   73.00   72.00   71.00   70.00   69.00   68.00   67.00   66.00
        65.00   64.00   63.00   62.00   61.00   60.00
  11    80.00   79.00   78.00   77.00   76.00   75.00   74.00   73.00   72.00   71.00   70.00   69.00   68.00   67.00   66.00
        65.00   64.00   63.00   62.00   61.00   60.00
  12    80.00   79.00   78.00   77.00   76.00   75.00   74.00   73.00   72.00   71.00   70.00   69.00   68.00   67.00   66.00
        65.00   64.00   63.00   62.00   61.00   60.00
  13    80.00   79.00   78.00   77.00   76.00   75.00   74.00   73.00   72.00   71.00   70.00   69.00   68.00   67.00   66.00
        65.00   64.00   63.00   62.00   61.00   60.00
  14    80.00   79.00   78.00   77.00   76.00   75.00   74.00   73.00   72.00   71.00   70.00   69.00   68.00   67.00   66.00
        65.00   64.00   63.00   62.00   61.00   60.00
  15    80.00   79.00   78.00   77.00   76.00   75.00   74.00   73.00   72.00   71.00   70.00   69.00   68.00   67.00   66.00
        65.00   64.00   63.00   62.00   61.00   60.00



                       INITIAL HEAD FOR LAYER   2
 READING ON UNIT   1 WITH FORMAT: (21F3.0)            

           1       2       3       4       5       6       7       8       9      10      11      12      13      14      15
          16      17      18      19      20      21
 ...........................................................................................................................
   1    80.00   79.00   78.00   77.00   76.00   75.00   74.00   73.00   72.00   71.00   70.00   69.00   68.00   67.00   66.00
        65.00   64.00   63.00   62.00   61.00   60.00
   2    80.00   79.00   78.00   77.00   76.00   75.00   74.00   73.00   72.00   71.00   70.00   69.00   68.00   67.00   66.00
        65.00   64.00   63.00   62.00   61.00   60.00
   3    80.00   79.00   78.00   77.00   76.00   75.00   74.00   73.00   72.00   71.00   70.00   69.00   68.00   67.00   66.00
        65.00   64.00   63.00   62.00   61.00   60.00
   4    80.00   79.00   78.00   77.00   76.00   75.00   74.00   73.00   72.00   71.00   70.00   69.00   68.00   67.00   66.00
        65.00   64.00   63.00   62.00   61.00   60.00
   5    80.00   79.00   78.00   77.00   76.00   75.00   74.00   73.00   72.00   71.00   70.00   69.00   68.00   67.00   66.00
        65.00   64.00   63.00   62.00   61.00   60.00
   6    80.00   79.00   78.00   77.00   76.00   75.00   74.00   73.00   72.00   71.00   70.00   69.00   68.00   67.00   66.00
        65.00   64.00   63.00   62.00   61.00   60.00
   7    80.00   79.00   78.00   77.00   76.00   75.00   74.00   73.00   72.00   71.00   70.00   69.00   68.00   67.00   66.00
        65.00   64.00   63.00   62.00   61.00   60.00
   8    80.00   79.00   78.00   77.00   76.00   75.00   74.00   73.00   72.00   71.00   70.00   69.00   68.00   67.00   66.00
        65.00   64.00   63.00   62.00   61.00   60.00
   9    80.00   79.00   78.00   77.00   76.00   75.00   74.00   73.00   72.00   71.00   70.00   69.00   68.00   67.00   66.00
        65.00   64.00   63.00   62.00   61.00   60.00
  10    80.00   79.00   78.00   77.00   76.00   75.00   74.00   73.00   72.00   71.00   70.00   69.00   68.00   67.00   66.00
        65.00   64.00   63.00   62.00   61.00   60.00
  11    80.00   79.00   78.00   77.00   76.00   75.00   74.00   73.00   72.00   71.00   70.00   69.00   68.00   67.00   66.00
        65.00   64.00   63.00   62.00   61.00   60.00
  12    80.00   79.00   78.00   77.00   76.00   75.00   74.00   73.00   72.00   71.00   70.00   69.00   68.00   67.00   66.00
        65.00   64.00   63.00   62.00   61.00   60.00
  13    80.00   79.00   78.00   77.00   76.00   75.00   74.00   73.00   72.00   71.00   70.00   69.00   68.00   67.00   66.00
        65.00   64.00   63.00   62.00   61.00   60.00
  14    80.00   79.00   78.00   77.00   76.00   75.00   74.00   73.00   72.00   71.00   70.00   69.00   68.00   67.00   66.00
        65.00   64.00   63.00   62.00   61.00   60.00
  15    80.00   79.00   78.00   77.00   76.00   75.00   74.00   73.00   72.00   71.00   70.00   69.00   68.00   67.00   66.00
        65.00   64.00   63.00   62.00   61.00   60.00



                       INITIAL HEAD FOR LAYER   3
 READING ON UNIT   1 WITH FORMAT: (21F3.0)            

           1       2       3       4       5       6       7       8       9      10      11      12      13      14      15
          16      17      18      19      20      21
 ...........................................................................................................................
   1    80.00   79.00   78.00   77.00   76.00   75.00   74.00   73.00   72.00   71.00   70.00   69.00   68.00   67.00   66.00
        65.00   64.00   63.00   62.00   61.00   60.00
   2    80.00   79.00   78.00   77.00   76.00   75.00   74.00   73.00   72.00   71.00   70.00   69.00   68.00   67.00   66.00
        65.00   64.00   63.00   62.00   61.00   60.00
   3    80.00   79.00   78.00   77.00   76.00   75.00   74.00   73.00   72.00   71.00   70.00   69.00   68.00   67.00   66.00
        65.00   64.00   63.00   62.00   61.00   60.00
   4    80.00   79.00   78.00   77.00   76.00   75.00   74.00   73.00   72.00   71.00   70.00   69.00   68.00   67.00   66.00
        65.00   64.00   63.00   62.00   61.00   60.00
   5    80.00   79.00   78.00   77.00   76.00   75.00   74.00   73.00   72.00   71.00   70.00   69.00   68.00   67.00   66.00
        65.00   64.00   63.00   62.00   61.00   60.00
   6    80.00   79.00   78.00   77.00   76.00   75.00   74.00   73.00   72.00   71.00   70.00   69.00   68.00   67.00   66.00
        65.00   64.00   63.00   62.00   61.00   60.00
   7    80.00   79.00   78.00   77.00   76.00   75.00   74.00   73.00   72.00   71.00   70.00   69.00   68.00   67.00   66.00
        65.00   64.00   63.00   62.00   61.00   60.00
   8    80.00   79.00   78.00   77.00   76.00   75.00   74.00   73.00   72.00   71.00   70.00   69.00   68.00   67.00   66.00
        65.00   64.00   63.00   62.00   61.00   60.00
   9    80.00   79.00   78.00   77.00   76.00   75.00   74.00   73.00   72.00   71.00   70.00   69.00   68.00   67.00   66.00
        65.00   64.00   63.00   62.00   61.00   60.00
  10    80.00   79.00   78.00   77.00   76.00   75.00   74.00   73.00   72.00   71.00   70.00   69.00   68.00   67.00   66.00
        65.00   64.00   63.00   62.00   61.00   60.00
  11    80.00   79.00   78.00   77.00   76.00   75.00   74.00   73.00   72.00   71.00   70.00   69.00   68.00   67.00   66.00
        65.00   64.00   63.00   62.00   61.00   60.00
  12    80.00   79.00   78.00   77.00   76.00   75.00   74.00   73.00   72.00   71.00   70.00   69.00   68.00   67.00   66.00
        65.00   64.00   63.00   62.00   61.00   60.00
  13    80.00   79.00   78.00   77.00   76.00   75.00   74.00   73.00   72.00   71.00   70.00   69.00   68.00   67.00   66.00
        65.00   64.00   63.00   62.00   61.00   60.00
  14    80.00   79.00   78.00   77.00   76.00   75.00   74.00   73.00   72.00   71.00   70.00   69.00   68.00   67.00   66.00
        65.00   64.00   63.00   62.00   61.00   60.00
  15    80.00   79.00   78.00   77.00   76.00   75.00   74.00   73.00   72.00   71.00   70.00   69.00   68.00   67.00   66.00
        65.00   64.00   63.00   62.00   61.00   60.00



                       INITIAL HEAD FOR LAYER   4
 READING ON UNIT   1 WITH FORMAT: (21F3.0)            

           1       2       3       4       5       6       7       8       9      10      11      12      13      14      15
          16      17      18      19      20      21
 ...........................................................................................................................
   1    80.00   79.00   78.00   77.00   76.00   75.00   74.00   73.00   72.00   71.00   70.00   69.00   68.00   67.00   66.00
        65.00   64.00   63.00   62.00   61.00   60.00
   2    80.00   79.00   78.00   77.00   76.00   75.00   74.00   73.00   72.00   71.00   70.00   69.00   68.00   67.00   66.00
        65.00   64.00   63.00   62.00   61.00   60.00
   3    80.00   79.00   78.00   77.00   76.00   75.00   74.00   73.00   72.00   71.00   70.00   69.00   68.00   67.00   66.00
        65.00   64.00   63.00   62.00   61.00   60.00
   4    80.00   79.00   78.00   77.00   76.00   75.00   74.00   73.00   72.00   71.00   70.00   69.00   68.00   67.00   66.00
        65.00   64.00   63.00   62.00   61.00   60.00
   5    80.00   79.00   78.00   77.00   76.00   75.00   74.00   73.00   72.00   71.00   70.00   69.00   68.00   67.00   66.00
        65.00   64.00   63.00   62.00   61.00   60.00
   6    80.00   79.00   78.00   77.00   76.00   75.00   74.00   73.00   72.00   71.00   70.00   69.00   68.00   67.00   66.00
        65.00   64.00   63.00   62.00   61.00   60.00
   7    80.00   79.00   78.00   77.00   76.00   75.00   74.00   73.00   72.00   71.00   70.00   69.00   68.00   67.00   66.00
        65.00   64.00   63.00   62.00   61.00   60.00
   8    80.00   79.00   78.00   77.00   76.00   75.00   74.00   73.00   72.00   71.00   70.00   69.00   68.00   67.00   66.00
        65.00   64.00   63.00   62.00   61.00   60.00
   9    80.00   79.00   78.00   77.00   76.00   75.00   74.00   73.00   72.00   71.00   70.00   69.00   68.00   67.00   66.00
        65.00   64.00   63.00   62.00   61.00   60.00
  10    80.00   79.00   78.00   77.00   76.00   75.00   74.00   73.00   72.00   71.00   70.00   69.00   68.00   67.00   66.00
        65.00   64.00   63.00   62.00   61.00   60.00
  11    80.00   79.00   78.00   77.00   76.00   75.00   74.00   73.00   72.00   71.00   70.00   69.00   68.00   67.00   66.00
        65.00   64.00   63.00   62.00   61.00   60.00
  12    80.00   79.00   78.00   77.00   76.00   75.00   74.00   73.00   72.00   71.00   70.00   69.00   68.00   67.00   66.00
        65.00   64.00   63.00   62.00   61.00   60.00
  13    80.00   79.00   78.00   77.00   76.00   75.00   74.00   73.00   72.00   71.00   70.00   69.00   68.00   67.00   66.00
        65.00   64.00   63.00   62.00   61.00   60.00
  14    80.00   79.00   78.00   77.00   76.00   75.00   74.00   73.00   72.00   71.00   70.00   69.00   68.00   67.00   66.00
        65.00   64.00   63.00   62.00   61.00   60.00
  15    80.00   79.00   78.00   77.00   76.00   75.00   74.00   73.00   72.00   71.00   70.00   69.00   68.00   67.00   66.00
        65.00   64.00   63.00   62.00   61.00   60.00



                       INITIAL HEAD FOR LAYER   5
 READING ON UNIT   1 WITH FORMAT: (21F3.0)            

           1       2       3       4       5       6       7       8       9      10      11      12      13      14      15
          16      17      18      19      20      21
 ...........................................................................................................................
   1    80.00   79.00   78.00   77.00   76.00   75.00   74.00   73.00   72.00   71.00   70.00   69.00   68.00   67.00   66.00
        65.00   64.00   63.00   62.00   61.00   60.00
   2    80.00   79.00   78.00   77.00   76.00   75.00   74.00   73.00   72.00   71.00   70.00   69.00   68.00   67.00   66.00
        65.00   64.00   63.00   62.00   61.00   60.00
   3    80.00   79.00   78.00   77.00   76.00   75.00   74.00   73.00   72.00   71.00   70.00   69.00   68.00   67.00   66.00
        65.00   64.00   63.00   62.00   61.00   60.00
   4    80.00   79.00   78.00   77.00   76.00   75.00   74.00   73.00   72.00   71.00   70.00   69.00   68.00   67.00   66.00
        65.00   64.00   63.00   62.00   61.00   60.00
   5    80.00   79.00   78.00   77.00   76.00   75.00   74.00   73.00   72.00   71.00   70.00   69.00   68.00   67.00   66.00
        65.00   64.00   63.00   62.00   61.00   60.00
   6    80.00   79.00   78.00   77.00   76.00   75.00   74.00   73.00   72.00   71.00   70.00   69.00   68.00   67.00   66.00
        65.00   64.00   63.00   62.00   61.00   60.00
   7    80.00   79.00   78.00   77.00   76.00   75.00   74.00   73.00   72.00   71.00   70.00   69.00   68.00   67.00   66.00
        65.00   64.00   63.00   62.00   61.00   60.00
   8    80.00   79.00   78.00   77.00   76.00   75.00   74.00   73.00   72.00   71.00   70.00   69.00   68.00   67.00   66.00
        65.00   64.00   63.00   62.00   61.00   60.00
   9    80.00   79.00   78.00   77.00   76.00   75.00   74.00   73.00   72.00   71.00   70.00   69.00   68.00   67.00   66.00
        65.00   64.00   63.00   62.00   61.00   60.00
  10    80.00   79.00   78.00   77.00   76.00   75.00   74.00   73.00   72.00   71.00   70.00   69.00   68.00   67.00   66.00
        65.00   64.00   63.00   62.00   61.00   60.00
  11    80.00   79.00   78.00   77.00   76.00   75.00   74.00   73.00   72.00   71.00   70.00   69.00   68.00   67.00   66.00
        65.00   64.00   63.00   62.00   61.00   60.00
  12    80.00   79.00   78.00   77.00   76.00   75.00   74.00   73.00   72.00   71.00   70.00   69.00   68.00   67.00   66.00
        65.00   64.00   63.00   62.00   61.00   60.00
  13    80.00   79.00   78.00   77.00   76.00   75.00   74.00   73.00   72.00   71.00   70.00   69.00   68.00   67.00   66.00
        65.00   64.00   63.00   62.00   61.00   60.00
  14    80.00   79.00   78.00   77.00   76.00   75.00   74.00   73.00   72.00   71.00   70.00   69.00   68.00   67.00   66.00
        65.00   64.00   63.00   62.00   61.00   60.00
  15    80.00   79.00   78.00   77.00   76.00   75.00   74.00   73.00   72.00   71.00   70.00   69.00   68.00   67.00   66.00
        65.00   64.00   63.00   62.00   61.00   60.00



                       INITIAL HEAD FOR LAYER   6
 READING ON UNIT   1 WITH FORMAT: (21F3.0)            

           1       2       3       4       5       6       7       8       9      10      11      12      13      14      15
          16      17      18      19      20      21
 ...........................................................................................................................
   1    80.00   79.00   78.00   77.00   76.00   75.00   74.00   73.00   72.00   71.00   70.00   69.00   68.00   67.00   66.00
        65.00   64.00   63.00   62.00   61.00   60.00
   2    80.00   79.00   78.00   77.00   76.00   75.00   74.00   73.00   72.00   71.00   70.00   69.00   68.00   67.00   66.00
        65.00   64.00   63.00   62.00   61.00   60.00
   3    80.00   79.00   78.00   77.00   76.00   75.00   74.00   73.00   72.00   71.00   70.00   69.00   68.00   67.00   66.00
        65.00   64.00   63.00   62.00   61.00   60.00
   4    80.00   79.00   78.00   77.00   76.00   75.00   74.00   73.00   72.00   71.00   70.00   69.00   68.00   67.00   66.00
        65.00   64.00   63.00   62.00   61.00   60.00
   5    80.00   79.00   78.00   77.00   76.00   75.00   74.00   73.00   72.00   71.00   70.00   69.00   68.00   67.00   66.00
        65.00   64.00   63.00   62.00   61.00   60.00
   6    80.00   79.00   78.00   77.00   76.00   75.00   74.00   73.00   72.00   71.00   70.00   69.00   68.00   67.00   66.00
        65.00   64.00   63.00   62.00   61.00   60.00
   7    80.00   79.00   78.00   77.00   76.00   75.00   74.00   73.00   72.00   71.00   70.00   69.00   68.00   67.00   66.00
        65.00   64.00   63.00   62.00   61.00   60.00
   8    80.00   79.00   78.00   77.00   76.00   75.00   74.00   73.00   72.00   71.00   70.00   69.00   68.00   67.00   66.00
        65.00   64.00   63.00   62.00   61.00   60.00
   9    80.00   79.00   78.00   77.00   76.00   75.00   74.00   73.00   72.00   71.00   70.00   69.00   68.00   67.00   66.00
        65.00   64.00   63.00   62.00   61.00   60.00
  10    80.00   79.00   78.00   77.00   76.00   75.00   74.00   73.00   72.00   71.00   70.00   69.00   68.00   67.00   66.00
        65.00   64.00   63.00   62.00   61.00   60.00
  11    80.00   79.00   78.00   77.00   76.00   75.00   74.00   73.00   72.00   71.00   70.00   69.00   68.00   67.00   66.00
        65.00   64.00   63.00   62.00   61.00   60.00
  12    80.00   79.00   78.00   77.00   76.00   75.00   74.00   73.00   72.00   71.00   70.00   69.00   68.00   67.00   66.00
        65.00   64.00   63.00   62.00   61.00   60.00
  13    80.00   79.00   78.00   77.00   76.00   75.00   74.00   73.00   72.00   71.00   70.00   69.00   68.00   67.00   66.00
        65.00   64.00   63.00   62.00   61.00   60.00
  14    80.00   79.00   78.00   77.00   76.00   75.00   74.00   73.00   72.00   71.00   70.00   69.00   68.00   67.00   66.00
        65.00   64.00   63.00   62.00   61.00   60.00
  15    80.00   79.00   78.00   77.00   76.00   75.00   74.00   73.00   72.00   71.00   70.00   69.00   68.00   67.00   66.00
        65.00   64.00   63.00   62.00   61.00   60.00



                       INITIAL HEAD FOR LAYER   7
 READING ON UNIT   1 WITH FORMAT: (21F3.0)            

           1       2       3       4       5       6       7       8       9      10      11      12      13      14      15
          16      17      18      19      20      21
 ...........................................................................................................................
   1    80.00   79.00   78.00   77.00   76.00   75.00   74.00   73.00   72.00   71.00   70.00   69.00   68.00   67.00   66.00
        65.00   64.00   63.00   62.00   61.00   60.00
   2    80.00   79.00   78.00   77.00   76.00   75.00   74.00   73.00   72.00   71.00   70.00   69.00   68.00   67.00   66.00
        65.00   64.00   63.00   62.00   61.00   60.00
   3    80.00   79.00   78.00   77.00   76.00   75.00   74.00   73.00   72.00   71.00   70.00   69.00   68.00   67.00   66.00
        65.00   64.00   63.00   62.00   61.00   60.00
   4    80.00   79.00   78.00   77.00   76.00   75.00   74.00   73.00   72.00   71.00   70.00   69.00   68.00   67.00   66.00
        65.00   64.00   63.00   62.00   61.00   60.00
   5    80.00   79.00   78.00   77.00   76.00   75.00   74.00   73.00   72.00   71.00   70.00   69.00   68.00   67.00   66.00
        65.00   64.00   63.00   62.00   61.00   60.00
   6    80.00   79.00   78.00   77.00   76.00   75.00   74.00   73.00   72.00   71.00   70.00   69.00   68.00   67.00   66.00
        65.00   64.00   63.00   62.00   61.00   60.00
   7    80.00   79.00   78.00   77.00   76.00   75.00   74.00   73.00   72.00   71.00   70.00   69.00   68.00   67.00   66.00
        65.00   64.00   63.00   62.00   61.00   60.00
   8    80.00   79.00   78.00   77.00   76.00   75.00   74.00   73.00   72.00   71.00   70.00   69.00   68.00   67.00   66.00
        65.00   64.00   63.00   62.00   61.00   60.00
   9    80.00   79.00   78.00   77.00   76.00   75.00   74.00   73.00   72.00   71.00   70.00   69.00   68.00   67.00   66.00
        65.00   64.00   63.00   62.00   61.00   60.00
  10    80.00   79.00   78.00   77.00   76.00   75.00   74.00   73.00   72.00   71.00   70.00   69.00   68.00   67.00   66.00
        65.00   64.00   63.00   62.00   61.00   60.00
  11    80.00   79.00   78.00   77.00   76.00   75.00   74.00   73.00   72.00   71.00   70.00   69.00   68.00   67.00   66.00
        65.00   64.00   63.00   62.00   61.00   60.00
  12    80.00   79.00   78.00   77.00   76.00   75.00   74.00   73.00   72.00   71.00   70.00   69.00   68.00   67.00   66.00
        65.00   64.00   63.00   62.00   61.00   60.00
  13    80.00   79.00   78.00   77.00   76.00   75.00   74.00   73.00   72.00   71.00   70.00   69.00   68.00   67.00   66.00
        65.00   64.00   63.00   62.00   61.00   60.00
  14    80.00   79.00   78.00   77.00   76.00   75.00   74.00   73.00   72.00   71.00   70.00   69.00   68.00   67.00   66.00
        65.00   64.00   63.00   62.00   61.00   60.00
  15    80.00   79.00   78.00   77.00   76.00   75.00   74.00   73.00   72.00   71.00   70.00   69.00   68.00   67.00   66.00
        65.00   64.00   63.00   62.00   61.00   60.00



                       INITIAL HEAD FOR LAYER   8
 READING ON UNIT   1 WITH FORMAT: (21F3.0)            

           1       2       3       4       5       6       7       8       9      10      11      12      13      14      15
          16      17      18      19      20      21
 ...........................................................................................................................
   1    80.00   79.00   78.00   77.00   76.00   75.00   74.00   73.00   72.00   71.00   70.00   69.00   68.00   67.00   66.00
        65.00   64.00   63.00   62.00   61.00   60.00
   2    80.00   79.00   78.00   77.00   76.00   75.00   74.00   73.00   72.00   71.00   70.00   69.00   68.00   67.00   66.00
        65.00   64.00   63.00   62.00   61.00   60.00
   3    80.00   79.00   78.00   77.00   76.00   75.00   74.00   73.00   72.00   71.00   70.00   69.00   68.00   67.00   66.00
        65.00   64.00   63.00   62.00   61.00   60.00
   4    80.00   79.00   78.00   77.00   76.00   75.00   74.00   73.00   72.00   71.00   70.00   69.00   68.00   67.00   66.00
        65.00   64.00   63.00   62.00   61.00   60.00
   5    80.00   79.00   78.00   77.00   76.00   75.00   74.00   73.00   72.00   71.00   70.00   69.00   68.00   67.00   66.00
        65.00   64.00   63.00   62.00   61.00   60.00
   6    80.00   79.00   78.00   77.00   76.00   75.00   74.00   73.00   72.00   71.00   70.00   69.00   68.00   67.00   66.00
        65.00   64.00   63.00   62.00   61.00   60.00
   7    80.00   79.00   78.00   77.00   76.00   75.00   74.00   73.00   72.00   71.00   70.00   69.00   68.00   67.00   66.00
        65.00   64.00   63.00   62.00   61.00   60.00
   8    80.00   79.00   78.00   77.00   76.00   75.00   74.00   73.00   72.00   71.00   70.00   69.00   68.00   67.00   66.00
        65.00   64.00   63.00   62.00   61.00   60.00
   9    80.00   79.00   78.00   77.00   76.00   75.00   74.00   73.00   72.00   71.00   70.00   69.00   68.00   67.00   66.00
        65.00   64.00   63.00   62.00   61.00   60.00
  10    80.00   79.00   78.00   77.00   76.00   75.00   74.00   73.00   72.00   71.00   70.00   69.00   68.00   67.00   66.00
        65.00   64.00   63.00   62.00   61.00   60.00
  11    80.00   79.00   78.00   77.00   76.00   75.00   74.00   73.00   72.00   71.00   70.00   69.00   68.00   67.00   66.00
        65.00   64.00   63.00   62.00   61.00   60.00
  12    80.00   79.00   78.00   77.00   76.00   75.00   74.00   73.00   72.00   71.00   70.00   69.00   68.00   67.00   66.00
        65.00   64.00   63.00   62.00   61.00   60.00
  13    80.00   79.00   78.00   77.00   76.00   75.00   74.00   73.00   72.00   71.00   70.00   69.00   68.00   67.00   66.00
        65.00   64.00   63.00   62.00   61.00   60.00
  14    80.00   79.00   78.00   77.00   76.00   75.00   74.00   73.00   72.00   71.00   70.00   69.00   68.00   67.00   66.00
        65.00   64.00   63.00   62.00   61.00   60.00
  15    80.00   79.00   78.00   77.00   76.00   75.00   74.00   73.00   72.00   71.00   70.00   69.00   68.00   67.00   66.00
        65.00   64.00   63.00   62.00   61.00   60.00

 OUTPUT CONTROL IS SPECIFIED EVERY TIME STEP
 HEAD PRINT FORMAT CODE IS   4    DRAWDOWN PRINT FORMAT CODE IS   4
 HEADS WILL BE SAVED ON UNIT  33    DRAWDOWNS WILL BE SAVED ON UNIT   0

 COLUMN TO ROW ANISOTROPY =   1.000000    

                     DELR =   10.00000    

                     DELC =   10.00000    

     TRANSMIS. ALONG ROWS =   10.00000     FOR LAYER   1

 VERT HYD COND /THICKNESS =  0.1000000     FOR LAYER   1

     TRANSMIS. ALONG ROWS =   10.00000     FOR LAYER   2

 VERT HYD COND /THICKNESS =  0.1000000     FOR LAYER   2

     TRANSMIS. ALONG ROWS =   10.00000     FOR LAYER   3

 VERT HYD COND /THICKNESS =  0.1000000     FOR LAYER   3

     TRANSMIS. ALONG ROWS =   10.00000     FOR LAYER   4

 VERT HYD COND /THICKNESS =  0.1000000     FOR LAYER   4

     TRANSMIS. ALONG ROWS =   10.00000     FOR LAYER   5

 VERT HYD COND /THICKNESS =  0.1000000     FOR LAYER   5

     TRANSMIS. ALONG ROWS =   10.00000     FOR LAYER   6

 VERT HYD COND /THICKNESS =  0.1000000     FOR LAYER   6

     TRANSMIS. ALONG ROWS =   10.00000     FOR LAYER   7

 VERT HYD COND /THICKNESS =  0.1000000     FOR LAYER   7

     TRANSMIS. ALONG ROWS =   10.00000     FOR LAYER   8



          SOLUTION BY THE STRONGLY IMPLICIT PROCEDURE
          -------------------------------------------
 MAXIMUM ITERATIONS ALLOWED FOR CLOSURE =       50
                 ACCELERATION PARAMETER =     1.0000    
      HEAD CHANGE CRITERION FOR CLOSURE =    0.10000E-04
      SIP HEAD CHANGE PRINTOUT INTERVAL =        1

     5 ITERATION PARAMETERS CALCULATED FROM SPECIFIED WSEED = 0.00100000 :

  0.000000E+00 0.822172E+00 0.968377E+00 0.994377E+00 0.999000E+00
1
                            STRESS PERIOD NO.   1, LENGTH =   1.000000    
                            ----------------------------------------------

                              NUMBER OF TIME STEPS =     1

                               MULTIPLIER FOR DELT =     1.000

                            INITIAL TIME STEP SIZE =   1.000000    


     1 WELLS

 LAYER   ROW   COL   STRESS RATE   WELL NO.
 ------------------------------------------
    7      8     3    0.50000          1

    11 ITERATIONS FOR TIME STEP   1 IN STRESS PERIOD  1

 MAXIMUM HEAD CHANGE FOR EACH ITERATION:

    HEAD CHANGE   HEAD CHANGE   HEAD CHANGE   HEAD CHANGE   HEAD CHANGE
  LAYER,ROW,COL LAYER,ROW,COL LAYER,ROW,COL LAYER,ROW,COL LAYER,ROW,COL
 ----------------------------------------------------------------------
     0.1042E-01    0.1364E-02    0.6910E-03    0.4087E-03    0.2232E-03
  (  7,  8,  3) (  8,  7,  3) (  8,  8,  4) (  7,  7,  7) (  8, 11, 10)
    -0.1223E-04   -0.1490E-04    0.1873E-04    0.2716E-04    0.1661E-04
  (  8,  7,  7) (  8,  7,  7) (  5,  8, 15) (  8,  6, 14) (  1, 14, 14)
     0.3516E-06
  (  8, 10, 10)


 HEAD/DRAWDOWN PRINTOUT FLAG = 1     TOTAL BUDGET PRINTOUT FLAG = 0
 CELL-BY-CELL FLOW TERM FLAG = 1

 OUTPUT FLAGS FOR ALL LAYERS ARE THE SAME:
   HEAD    DRAWDOWN  HEAD  DRAWDOWN
 PRINTOUT  PRINTOUT  SAVE    SAVE
 ----------------------------------
     1         0       1       0

 SATURATED THICKNESS AND FLOW TERMS SAVED ON UNIT 32 FOR MT3D BY LINKMT3D PACKAGE 5.0
1
              HEAD IN LAYER  1 AT END OF TIME STEP  1 IN STRESS PERIOD  1
  -----------------------------------------------------------------------

           1       2       3       4       5       6       7       8       9      10      11      12      13      14      15
          16      17      18      19      20      21
 ...........................................................................................................................
   1    80.00   79.00   78.00   77.00   76.00   75.00   74.00   73.00   72.00   71.00   70.00   69.00   68.00   67.00   66.00
        65.00   64.00   63.00   62.00   61.00   60.00
   2    80.00   79.00   78.00   77.00   76.00   75.00   74.00   73.00   72.00   71.00   70.00   69.00   68.00   67.00   66.00
        65.00   64.00   63.00   62.00   61.00   60.00
   3    80.00   79.00   78.00   77.00   76.00   75.00   74.00   73.00   72.00   71.00   70.00   69.00   68.00   67.00   66.00
        65.00   64.00   63.00   62.00   61.00   60.00
   4    80.00   79.00   78.00   77.00   76.00   75.00   74.00   73.00   72.00   71.00   70.00   69.00   68.00   67.00   66.00
        65.00   64.00   63.00   62.00   61.00   60.00
   5    80.00   79.00   78.00   77.00   76.00   75.00   74.00   73.00   72.00   71.00   70.00   69.00   68.00   67.00   66.00
        65.00   64.00   63.00   62.00   61.00   60.00
   6    80.00   79.00   78.00   77.00   76.00   75.00   74.00   73.00   72.00   71.00   70.00   69.00   68.00   67.00   66.00
        65.00   64.00   63.00   62.00   61.00   60.00
   7    80.00   79.00   78.00   77.00   76.00   75.00   74.00   73.00   72.00   71.00   70.00   69.00   68.00   67.00   66.00
        65.00   64.00   63.00   62.00   61.00   60.00
   8    80.00   79.00   78.00   77.00   76.00   75.00   74.00   73.00   72.00   71.00   70.00   69.00   68.00   67.00   66.00
        65.00   64.00   63.00   62.00   61.00   60.00
   9    80.00   79.00   78.00   77.00   76.00   75.00   74.00   73.00   72.00   71.00   70.00   69.00   68.00   67.00   66.00
        65.00   64.00   63.00   62.00   61.00   60.00
  10    80.00   79.00   78.00   77.00   76.00   75.00   74.00   73.00   72.00   71.00   70.00   69.00   68.00   67.00   66.00
        65.00   64.00   63.00   62.00   61.00   60.00
  11    80.00   79.00   78.00   77.00   76.00   75.00   74.00   73.00   72.00   71.00   70.00   69.00   68.00   67.00   66.00
        65.00   64.00   63.00   62.00   61.00   60.00
  12    80.00   79.00   78.00   77.00   76.00   75.00   74.00   73.00   72.00   71.00   70.00   69.00   68.00   67.00   66.00
        65.00   64.00   63.00   62.00   61.00   60.00
  13    80.00   79.00   78.00   77.00   76.00   75.00   74.00   73.00   72.00   71.00   70.00   69.00   68.00   67.00   66.00
        65.00   64.00   63.00   62.00   61.00   60.00
  14    80.00   79.00   78.00   77.00   76.00   75.00   74.00   73.00   72.00   71.00   70.00   69.00   68.00   67.00   66.00
        65.00   64.00   63.00   62.00   61.00   60.00
  15    80.00   79.00   78.00   77.00   76.00   75.00   74.00   73.00   72.00   71.00   70.00   69.00   68.00   67.00   66.00
        65.00   64.00   63.00   62.00   61.00   60.00
1
              HEAD IN LAYER  2 AT END OF TIME STEP  1 IN STRESS PERIOD  1
  -----------------------------------------------------------------------

           1       2       3       4       5       6       7       8       9      10      11      12      13      14      15
          16      17      18      19      20      21
 ...........................................................................................................................
   1    80.00   79.00   78.00   77.00   76.00   75.00   74.00   73.00   72.00   71.00   70.00   69.00   68.00   67.00   66.00
        65.00   64.00   63.00   62.00   61.00   60.00
   2    80.00   79.00   78.00   77.00   76.00   75.00   74.00   73.00   72.00   71.00   70.00   69.00   68.00   67.00   66.00
        65.00   64.00   63.00   62.00   61.00   60.00
   3    80.00   79.00   78.00   77.00   76.00   75.00   74.00   73.00   72.00   71.00   70.00   69.00   68.00   67.00   66.00
        65.00   64.00   63.00   62.00   61.00   60.00
   4    80.00   79.00   78.00   77.00   76.00   75.00   74.00   73.00   72.00   71.00   70.00   69.00   68.00   67.00   66.00
        65.00   64.00   63.00   62.00   61.00   60.00
   5    80.00   79.00   78.00   77.00   76.00   75.00   74.00   73.00   72.00   71.00   70.00   69.00   68.00   67.00   66.00
        65.00   64.00   63.00   62.00   61.00   60.00
   6    80.00   79.00   78.00   77.00   76.00   75.00   74.00   73.00   72.00   71.00   70.00   69.00   68.00   67.00   66.00
        65.00   64.00   63.00   62.00   61.00   60.00
   7    80.00   79.00   78.00   77.00   76.00   75.00   74.00   73.00   72.00   71.00   70.00   69.00   68.00   67.00   66.00
        65.00   64.00   63.00   62.00   61.00   60.00
   8    80.00   79.00   78.00   77.00   76.00   75.00   74.00   73.00   72.00   71.00   70.00   69.00   68.00   67.00   66.00
        65.00   64.00   63.00   62.00   61.00   60.00
   9    80.00   79.00   78.00   77.00   76.00   75.00   74.00   73.00   72.00   71.00   70.00   69.00   68.00   67.00   66.00
        65.00   64.00   63.00   62.00   61.00   60.00
  10    80.00   79.00   78.00   77.00   76.00   75.00   74.00   73.00   72.00   71.00   70.00   69.00   68.00   67.00   66.00
        65.00   64.00   63.00   62.00   61.00   60.00
  11    80.00   79.00   78.00   77.00   76.00   75.00   74.00   73.00   72.00   71.00   70.00   69.00   68.00   67.00   66.00
        65.00   64.00   63.00   62.00   61.00   60.00
  12    80.00   79.00   78.00   77.00   76.00   75.00   74.00   73.00   72.00   71.00   70.00   69.00   68.00   67.00   66.00
        65.00   64.00   63.00   62.00   61.00   60.00
  13    80.00   79.00   78.00   77.00   76.00   75.00   74.00   73.00   72.00   71.00   70.00   69.00   68.00   67.00   66.00
        65.00   64.00   63.00   62.00   61.00   60.00
  14    80.00   79.00   78.00   77.00   76.00   75.00   74.00   73.00   72.00   71.00   70.00   69.00   68.00   67.00   66.00
        65.00   64.00   63.00   62.00   61.00   60.00
  15    80.00   79.00   78.00   77.00   76.00   75.00   74.00   73.00   72.00   71.00   70.00   69.00   68.00   67.00   66.00
        65.00   64.00   63.00   62.00   61.00   60.00
1
              HEAD IN LAYER  3 AT END OF TIME STEP  1 IN STRESS PERIOD  1
  -----------------------------------------------------------------------

           1       2       3       4       5       6       7       8       9      10      11      12      13      14      15
          16      17      18      19      20      21
 ...........................................................................................................................
   1    80.00   79.00   78.00   77.00   76.00   75.00   74.00   73.00   72.00   71.00   70.00   69.00   68.00   67.00   66.00
        65.00   64.00   63.00   62.00   61.00   60.00
   2    80.00   79.00   78.00   77.00   76.00   75.00   74.00   73.00   72.00   71.00   70.00   69.00   68.00   67.00   66.00
        65.00   64.00   63.00   62.00   61.00   60.00
   3    80.00   79.00   78.00   77.00   76.00   75.00   74.00   73.00   72.00   71.00   70.00   69.00   68.00   67.00   66.00
        65.00   64.00   63.00   62.00   61.00   60.00
   4    80.00   79.00   78.00   77.00   76.00   75.00   74.00   73.00   72.00   71.00   70.00   69.00   68.00   67.00   66.00
        65.00   64.00   63.00   62.00   61.00   60.00
   5    80.00   79.00   78.00   77.00   76.00   75.00   74.00   73.00   72.00   71.00   70.00   69.00   68.00   67.00   66.00
        65.00   64.00   63.00   62.00   61.00   60.00
   6    80.00   79.00   78.00   77.00   76.00   75.00   74.00   73.00   72.00   71.00   70.00   69.00   68.00   67.00   66.00
        65.00   64.00   63.00   62.00   61.00   60.00
   7    80.00   79.00   78.00   77.00   76.00   75.00   74.00   73.00   72.00   71.00   70.00   69.00   68.00   67.00   66.00
        65.00   64.00   63.00   62.00   61.00   60.00
   8    80.00   79.00   78.00   77.00   76.00   75.00   74.00   73.00   72.00   71.00   70.00   69.00   68.00   67.00   66.00
        65.00   64.00   63.00   62.00   61.00   60.00
   9    80.00   79.00   78.00   77.00   76.00   75.00   74.00   73.00   72.00   71.00   70.00   69.00   68.00   67.00   66.00
        65.00   64.00   63.00   62.00   61.00   60.00
  10    80.00   79.00   78.00   77.00   76.00   75.00   74.00   73.00   72.00   71.00   70.00   69.00   68.00   67.00   66.00
        65.00   64.00   63.00   62.00   61.00   60.00
  11    80.00   79.00   78.00   77.00   76.00   75.00   74.00   73.00   72.00   71.00   70.00   69.00   68.00   67.00   66.00
        65.00   64.00   63.00   62.00   61.00   60.00
  12    80.00   79.00   78.00   77.00   76.00   75.00   74.00   73.00   72.00   71.00   70.00   69.00   68.00   67.00   66.00
        65.00   64.00   63.00   62.00   61.00   60.00
  13    80.00   79.00   78.00   77.00   76.00   75.00   74.00   73.00   72.00   71.00   70.00   69.00   68.00   67.00   66.00
        65.00   64.00   63.00   62.00   61.00   60.00
  14    80.00   79.00   78.00   77.00   76.00   75.00   74.00   73.00   72.00   71.00   70.00   69.00   68.00   67.00   66.00
        65.00   64.00   63.00   62.00   61.00   60.00
  15    80.00   79.00   78.00   77.00   76.00   75.00   74.00   73.00   72.00   71.00   70.00   69.00   68.00   67.00   66.00
        65.00   64.00   63.00   62.00   61.00   60.00
1
              HEAD IN LAYER  4 AT END OF TIME STEP  1 IN STRESS PERIOD  1
  -----------------------------------------------------------------------

           1       2       3       4       5       6       7       8       9      10      11      12      13      14      15
          16      17      18      19      20      21
 ...........................................................................................................................
   1    80.00   79.00   78.00   77.00   76.00   75.00   74.00   73.00   72.00   71.00   70.00   69.00   68.00   67.00   66.00
        65.00   64.00   63.00   62.00   61.00   60.00
   2    80.00   79.00   78.00   77.00   76.00   75.00   74.00   73.00   72.00   71.00   70.00   69.00   68.00   67.00   66.00
        65.00   64.00   63.00   62.00   61.00   60.00
   3    80.00   79.00   78.00   77.00   76.00   75.00   74.00   73.00   72.00   71.00   70.00   69.00   68.00   67.00   66.00
        65.00   64.00   63.00   62.00   61.00   60.00
   4    80.00   79.00   78.00   77.00   76.00   75.00   74.00   73.00   72.00   71.00   70.00   69.00   68.00   67.00   66.00
        65.00   64.00   63.00   62.00   61.00   60.00
   5    80.00   79.00   78.00   77.00   76.00   75.00   74.00   73.00   72.00   71.00   70.00   69.00   68.00   67.00   66.00
        65.00   64.00   63.00   62.00   61.00   60.00
   6    80.00   79.00   78.00   77.00   76.00   75.00   74.00   73.00   72.00   71.00   70.00   69.00   68.00   67.00   66.00
        65.00   64.00   63.00   62.00   61.00   60.00
   7    80.00   79.00   78.00   77.00   76.00   75.00   74.00   73.00   72.00   71.00   70.00   69.00   68.00   67.00   66.00
        65.00   64.00   63.00   62.00   61.00   60.00
   8    80.00   79.00   78.00   77.00   76.00   75.00   74.00   73.00   72.00   71.00   70.00   69.00   68.00   67.00   66.00
        65.00   64.00   63.00   62.00   61.00   60.00
   9    80.00   79.00   78.00   77.00   76.00   75.00   74.00   73.00   72.00   71.00   70.00   69.00   68.00   67.00   66.00
        65.00   64.00   63.00   62.00   61.00   60.00
  10    80.00   79.00   78.00   77.00   76.00   75.00   74.00   73.00   72.00   71.00   70.00   69.00   68.00   67.00   66.00
        65.00   64.00   63.00   62.00   61.00   60.00
  11    80.00   79.00   78.00   77.00   76.00   75.00   74.00   73.00   72.00   71.00   70.00   69.00   68.00   67.00   66.00
        65.00   64.00   63.00   62.00   61.00   60.00
  12    80.00   79.00   78.00   77.00   76.00   75.00   74.00   73.00   72.00   71.00   70.00   69.00   68.00   67.00   66.00
        65.00   64.00   63.00   62.00   61.00   60.00
  13    80.00   79.00   78.00   77.00   76.00   75.00   74.00   73.00   72.00   71.00   70.00   69.00   68.00   67.00   66.00
        65.00   64.00   63.00   62.00   61.00   60.00
  14    80.00   79.00   78.00   77.00   76.00   75.00   74.00   73.00   72.00   71.00   70.00   69.00   68.00   67.00   66.00
        65.00   64.00   63.00   62.00   61.00   60.00
  15    80.00   79.00   78.00   77.00   76.00   75.00   74.00   73.00   72.00   71.00   70.00   69.00   68.00   67.00   66.00
        65.00   64.00   63.00   62.00   61.00   60.00
1
              HEAD IN LAYER  5 AT END OF TIME STEP  1 IN STRESS PERIOD  1
  -----------------------------------------------------------------------

           1       2       3       4       5       6       7       8       9      10      11      12      13      14      15
          16      17      18      19      20      21
 ...........................................................................................................................
   1    80.00   79.00   78.00   77.00   76.00   75.00   74.00   73.00   72.00   71.00   70.00   69.00   68.00   67.00   66.00
        65.00   64.00   63.00   62.00   61.00   60.00
   2    80.00   79.00   78.00   77.00   76.00   75.00   74.00   73.00   72.00   71.00   70.00   69.00   68.00   67.00   66.00
        65.00   64.00   63.00   62.00   61.00   60.00
   3    80.00   79.00   78.00   77.00   76.00   75.00   74.00   73.00   72.00   71.00   70.00   69.00   68.00   67.00   66.00
        65.00   64.00   63.00   62.00   61.00   60.00
   4    80.00   79.00   78.00   77.00   76.00   75.00   74.00   73.00   72.00   71.00   70.00   69.00   68.00   67.00   66.00
        65.00   64.00   63.00   62.00   61.00   60.00
   5    80.00   79.00   78.00   77.00   76.00   75.00   74.00   73.00   72.00   71.00   70.00   69.00   68.00   67.00   66.00
        65.00   64.00   63.00   62.00   61.00   60.00
   6    80.00   79.00   78.00   77.00   76.00   75.00   74.00   73.00   72.00   71.00   70.00   69.00   68.00   67.00   66.00
        65.00   64.00   63.00   62.00   61.00   60.00
   7    80.00   79.00   78.00   77.00   76.00   75.00   74.00   73.00   72.00   71.00   70.00   69.00   68.00   67.00   66.00
        65.00   64.00   63.00   62.00   61.00   60.00
   8    80.00   79.00   78.00   77.00   76.00   75.00   74.00   73.00   72.00   71.00   70.00   69.00   68.00   67.00   66.00
        65.00   64.00   63.00   62.00   61.00   60.00
   9    80.00   79.00   78.00   77.00   76.00   75.00   74.00   73.00   72.00   71.00   70.00   69.00   68.00   67.00   66.00
        65.00   64.00   63.00   62.00   61.00   60.00
  10    80.00   79.00   78.00   77.00   76.00   75.00   74.00   73.00   72.00   71.00   70.00   69.00   68.00   67.00   66.00
        65.00   64.00   63.00   62.00   61.00   60.00
  11    80.00   79.00   78.00   77.00   76.00   75.00   74.00   73.00   72.00   71.00   70.00   69.00   68.00   67.00   66.00
        65.00   64.00   63.00   62.00   61.00   60.00
  12    80.00   79.00   78.00   77.00   76.00   75.00   74.00   73.00   72.00   71.00   70.00   69.00   68.00   67.00   66.00
        65.00   64.00   63.00   62.00   61.00   60.00
  13    80.00   79.00   78.00   77.00   76.00   75.00   74.00   73.00   72.00   71.00   70.00   69.00   68.00   67.00   66.00
        65.00   64.00   63.00   62.00   61.00   60.00
  14    80.00   79.00   78.00   77.00   76.00   75.00   74.00   73.00   72.00   71.00   70.00   69.00   68.00   67.00   66.00
        65.00   64.00   63.00   62.00   61.00   60.00
  15    80.00   79.00   78.00   77.00   76.00   75.00   74.00   73.00   72.00   71.00   70.00   69.00   68.00   67.00   66.00
        65.00   64.00   63.00   62.00   61.00   60.00
1
              HEAD IN LAYER  6 AT END OF TIME STEP  1 IN STRESS PERIOD  1
  -----------------------------------------------------------------------

           1       2       3       4       5       6       7       8       9      10      11      12      13      14      15
          16      17      18      19      20      21
 ...........................................................................................................................
   1    80.00   79.00   78.00   77.00   76.00   75.00   74.00   73.00   72.00   71.00   70.00   69.00   68.00   67.00   66.00
        65.00   64.00   63.00   62.00   61.00   60.00
   2    80.00   79.00   78.00   77.00   76.00   75.00   74.00   73.00   72.00   71.00   70.00   69.00   68.00   67.00   66.00
        65.00   64.00   63.00   62.00   61.00   60.00
   3    80.00   79.00   78.00   77.00   76.00   75.00   74.00   73.00   72.00   71.00   70.00   69.00   68.00   67.00   66.00
        65.00   64.00   63.00   62.00   61.00   60.00
   4    80.00   79.00   78.00   77.00   76.00   75.00   74.00   73.00   72.00   71.00   70.00   69.00   68.00   67.00   66.00
        65.00   64.00   63.00   62.00   61.00   60.00
   5    80.00   79.00   78.00   77.00   76.00   75.00   74.00   73.00   72.00   71.00   70.00   69.00   68.00   67.00   66.00
        65.00   64.00   63.00   62.00   61.00   60.00
   6    80.00   79.00   78.00   77.00   76.00   75.00   74.00   73.00   72.00   71.00   70.00   69.00   68.00   67.00   66.00
        65.00   64.00   63.00   62.00   61.00   60.00
   7    80.00   79.00   78.00   77.00   76.00   75.00   74.00   73.00   72.00   71.00   70.00   69.00   68.00   67.00   66.00
        65.00   64.00   63.00   62.00   61.00   60.00
   8    80.00   79.00   78.00   77.00   76.00   75.00   74.00   73.00   72.00   71.00   70.00   69.00   68.00   67.00   66.00
        65.00   64.00   63.00   62.00   61.00   60.00
   9    80.00   79.00   78.00   77.00   76.00   75.00   74.00   73.00   72.00   71.00   70.00   69.00   68.00   67.00   66.00
        65.00   64.00   63.00   62.00   61.00   60.00
  10    80.00   79.00   78.00   77.00   76.00   75.00   74.00   73.00   72.00   71.00   70.00   69.00   68.00   67.00   66.00
        65.00   64.00   63.00   62.00   61.00   60.00
  11    80.00   79.00   78.00   77.00   76.00   75.00   74.00   73.00   72.00   71.00   70.00   69.00   68.00   67.00   66.00
        65.00   64.00   63.00   62.00   61.00   60.00
  12    80.00   79.00   78.00   77.00   76.00   75.00   74.00   73.00   72.00   71.00   70.00   69.00   68.00   67.00   66.00
        65.00   64.00   63.00   62.00   61.00   60.00
  13    80.00   79.00   78.00   77.00   76.00   75.00   74.00   73.00   72.00   71.00   70.00   69.00   68.00   67.00   66.00
        65.00   64.00   63.00   62.00   61.00   60.00
  14    80.00   79.00   78.00   77.00   76.00   75.00   74.00   73.00   72.00   71.00   70.00   69.00   68.00   67.00   66.00
        65.00   64.00   63.00   62.00   61.00   60.00
  15    80.00   79.00   78.00   77.00   76.00   75.00   74.00   73.00   72.00   71.00   70.00   69.00   68.00   67.00   66.00
        65.00   64.00   63.00   62.00   61.00   60.00
1
              HEAD IN LAYER  7 AT END OF TIME STEP  1 IN STRESS PERIOD  1
  -----------------------------------------------------------------------

           1       2       3       4       5       6       7       8       9      10      11      12      13      14      15
          16      17      18      19      20      21
 ...........................................................................................................................
   1    80.00   79.00   78.00   77.00   76.00   75.00   74.00   73.00   72.00   71.00   70.00   69.00   68.00   67.00   66.00
        65.00   64.00   63.00   62.00   61.00   60.00
   2    80.00   79.00   78.00   77.00   76.00   75.00   74.00   73.00   72.00   71.00   70.00   69.00   68.00   67.00   66.00
        65.00   64.00   63.00   62.00   61.00   60.00
   3    80.00   79.00   78.00   77.00   76.00   75.00   74.00   73.00   72.00   71.00   70.00   69.00   68.00   67.00   66.00
        65.00   64.00   63.00   62.00   61.00   60.00
   4    80.00   79.00   78.00   77.00   76.00   75.00   74.00   73.00   72.00   71.00   70.00   69.00   68.00   67.00   66.00
        65.00   64.00   63.00   62.00   61.00   60.00
   5    80.00   79.00   78.00   77.00   76.00   75.00   74.00   73.00   72.00   71.00   70.00   69.00   68.00   67.00   66.00
        65.00   64.00   63.00   62.00   61.00   60.00
   6    80.00   79.00   78.00   77.00   76.00   75.00   74.00   73.00   72.00   71.00   70.00   69.00   68.00   67.00   66.00
        65.00   64.00   63.00   62.00   61.00   60.00
   7    80.00   79.00   78.00   77.00   76.00   75.00   74.00   73.00   72.00   71.00   70.00   69.00   68.00   67.00   66.00
        65.00   64.00   63.00   62.00   61.00   60.00
   8    80.00   79.00   78.01   77.00   76.00   75.00   74.00   73.00   72.00   71.00   70.00   69.00   68.00   67.00   66.00
        65.00   64.00   63.00   62.00   61.00   60.00
   9    80.00   79.00   78.00   77.00   76.00   75.00   74.00   73.00   72.00   71.00   70.00   69.00   68.00   67.00   66.00
        65.00   64.00   63.00   62.00   61.00   60.00
  10    80.00   79.00   78.00   77.00   76.00   75.00   74.00   73.00   72.00   71.00   70.00   69.00   68.00   67.00   66.00
        65.00   64.00   63.00   62.00   61.00   60.00
  11    80.00   79.00   78.00   77.00   76.00   75.00   74.00   73.00   72.00   71.00   70.00   69.00   68.00   67.00   66.00
        65.00   64.00   63.00   62.00   61.00   60.00
  12    80.00   79.00   78.00   77.00   76.00   75.00   74.00   73.00   72.00   71.00   70.00   69.00   68.00   67.00   66.00
        65.00   64.00   63.00   62.00   61.00   60.00
  13    80.00   79.00   78.00   77.00   76.00   75.00   74.00   73.00   72.00   71.00   70.00   69.00   68.00   67.00   66.00
        65.00   64.00   63.00   62.00   61.00   60.00
  14    80.00   79.00   78.00   77.00   76.00   75.00   74.00   73.00   72.00   71.00   70.00   69.00   68.00   67.00   66.00
        65.00   64.00   63.00   62.00   61.00   60.00
  15    80.00   79.00   78.00   77.00   76.00   75.00   74.00   73.00   72.00   71.00   70.00   69.00   68.00   67.00   66.00
        65.00   64.00   63.00   62.00   61.00   60.00
1
              HEAD IN LAYER  8 AT END OF TIME STEP  1 IN STRESS PERIOD  1
  -----------------------------------------------------------------------

           1       2       3       4       5       6       7       8       9      10      11      12      13      14      15
          16      17      18      19      20      21
 ...........................................................................................................................
   1    80.00   79.00   78.00   77.00   76.00   75.00   74.00   73.00   72.00   71.00   70.00   69.00   68.00   67.00   66.00
        65.00   64.00   63.00   62.00   61.00   60.00
   2    80.00   79.00   78.00   77.00   76.00   75.00   74.00   73.00   72.00   71.00   70.00   69.00   68.00   67.00   66.00
        65.00   64.00   63.00   62.00   61.00   60.00
   3    80.00   79.00   78.00   77.00   76.00   75.00   74.00   73.00   72.00   71.00   70.00   69.00   68.00   67.00   66.00
        65.00   64.00   63.00   62.00   61.00   60.00
   4    80.00   79.00   78.00   77.00   76.00   75.00   74.00   73.00   72.00   71.00   70.00   69.00   68.00   67.00   66.00
        65.00   64.00   63.00   62.00   61.00   60.00
   5    80.00   79.00   78.00   77.00   76.00   75.00   74.00   73.00   72.00   71.00   70.00   69.00   68.00   67.00   66.00
        65.00   64.00   63.00   62.00   61.00   60.00
   6    80.00   79.00   78.00   77.00   76.00   75.00   74.00   73.00   72.00   71.00   70.00   69.00   68.00   67.00   66.00
        65.00   64.00   63.00   62.00   61.00   60.00
   7    80.00   79.00   78.00   77.00   76.00   75.00   74.00   73.00   72.00   71.00   70.00   69.00   68.00   67.00   66.00
        65.00   64.00   63.00   62.00   61.00   60.00
   8    80.00   79.00   78.00   77.00   76.00   75.00   74.00   73.00   72.00   71.00   70.00   69.00   68.00   67.00   66.00
        65.00   64.00   63.00   62.00   61.00   60.00
   9    80.00   79.00   78.00   77.00   76.00   75.00   74.00   73.00   72.00   71.00   70.00   69.00   68.00   67.00   66.00
        65.00   64.00   63.00   62.00   61.00   60.00
  10    80.00   79.00   78.00   77.00   76.00   75.00   74.00   73.00   72.00   71.00   70.00   69.00   68.00   67.00   66.00
        65.00   64.00   63.00   62.00   61.00   60.00
  11    80.00   79.00   78.00   77.00   76.00   75.00   74.00   73.00   72.00   71.00   70.00   69.00   68.00   67.00   66.00
        65.00   64.00   63.00   62.00   61.00   60.00
  12    80.00   79.00   78.00   77.00   76.00   75.00   74.00   73.00   72.00   71.00   70.00   69.00   68.00   67.00   66.00
        65.00   64.00   63.00   62.00   61.00   60.00
  13    80.00   79.00   78.00   77.00   76.00   75.00   74.00   73.00   72.00   71.00   70.00   69.00   68.00   67.00   66.00
        65.00   64.00   63.00   62.00   61.00   60.00
  14    80.00   79.00   78.00   77.00   76.00   75.00   74.00   73.00   72.00   71.00   70.00   69.00   68.00   67.00   66.00
        65.00   64.00   63.00   62.00   61.00   60.00
  15    80.00   79.00   78.00   77.00   76.00   75.00   74.00   73.00   72.00   71.00   70.00   69.00   68.00   67.00   66.00
        65.00   64.00   63.00   62.00   61.00   60.00

 HEAD WILL BE SAVED ON UNIT  33 AT END OF TIME STEP  1, STRESS PERIOD  1
1
  VOLUMETRIC BUDGET FOR ENTIRE MODEL AT END OF TIME STEP  1 IN STRESS PERIOD  1
  -----------------------------------------------------------------------------

     CUMULATIVE VOLUMES      L**3       RATES FOR THIS TIME STEP      L**3/T
     ------------------                 ------------------------

           IN:                                      IN:
           ---                                      ---
       CONSTANT HEAD =        1199.5507         CONSTANT HEAD =        1199.5507
               WELLS =           0.5000                 WELLS =           0.5000

            TOTAL IN =        1200.0507              TOTAL IN =        1200.0507

          OUT:                                     OUT:
          ----                                     ----
       CONSTANT HEAD =        1200.0498         CONSTANT HEAD =        1200.0498
               WELLS =           0.0000                 WELLS =           0.0000

           TOTAL OUT =        1200.0498             TOTAL OUT =        1200.0498

            IN - OUT =       8.5449E-04              IN - OUT =       8.5449E-04

 PERCENT DISCREPANCY =           0.00     PERCENT DISCREPANCY =           0.00






          TIME SUMMARY AT END OF TIME STEP  1 IN STRESS PERIOD  1
                    SECONDS     MINUTES      HOURS       DAYS        YEARS
                    -----------------------------------------------------------
   TIME STEP LENGTH  86400.      1440.0      24.000      1.0000     2.73785E-03
 STRESS PERIOD TIME  86400.      1440.0      24.000      1.0000     2.73785E-03
         TOTAL TIME  86400.      1440.0      24.000      1.0000     2.73785E-03
1
