                             MODFLOW 6 PROFESSIONAL
                U.S. GEOLOGICAL SURVEY MODULAR HYDROLOGIC MODEL
                  VERSION 6.5.0.dev0 (preliminary) 07/13/2023
                               ***DEVELOP MODE***

        MODFLOW 6 compiled Oct 30 2023 08:23:02 with GCC version 11.3.0

This software is preliminary or provisional and is subject to 
revision. It is being provided to meet the need for timely best 
science. The software has not received final approval by the U.S. 
Geological Survey (USGS). No warranty, expressed or implied, is made 
by the USGS or the U.S. Government as to the functionality of the 
software and related material nor shall the fact of release 
constitute any such warranty. The software is provided on the 
condition that neither the USGS nor the U.S. Government shall be held 
liable for any damages resulting from the authorized or unauthorized 
use of the software.


As a work of the United States Government, this USGS product is 
in the public domain within the United States. You can copy, 
modify, distribute, and perform the work, even for commercial 
purposes, all without asking permission. Additionally, USGS 
waives copyright and related rights in the work worldwide 
through CC0 1.0 Universal Public Domain Dedication 
(https://creativecommons.org/publicdomain/zero/1.0/).

The following GNU Lesser General Public License (LGPL) libraries
are used in this USGS product:

    SPARSKIT version 2.0
      ilut, luson, and qsplit 
      (https://www-users.cse.umn.edu/~saad/software/SPARSKIT/)

    RCM - Reverse Cuthill McKee Ordering
      (https://people.math.sc.edu/Burkardt/f_src/rcm/rcm.html)

    BLAS - Basic Linear Algebra Subprograms Level 1
      (https://people.math.sc.edu/Burkardt/f_src/blas1_d/blas1_d.html)

    SPARSEKIT - Sparse Matrix Utility Package
      amux, dperm, dvperm, rperm, and cperm
      (https://people.sc.fsu.edu/~jburkardt/f77_src/sparsekit/sparsekit.html)

The following BSD-3 License libraries are used in this USGS product:

    Modern Fortran DAG Library
      Copyright (c) 2018, Jacob Williams
      All rights reserved.
      (https://github.com/jacobwilliams/daglib)

The following 2-clause BSD License library is used in this
USGS product:

    PETSc, the Portable, Extensible Toolkit for Scientific
    Computation Library
      Copyright (c) 1991-2021, UChicago Argonne, LLC
      and the PETSc Development Team All rights reserved.
      (https://petsc.org/release/)

MODFLOW 6 compiler options: -cpp -I src/libmf6core.a.p -I src -I ../src -I
src/libmf6_external.a.p -I
/home/mreno/.clone/external/petsc/arch-linux-c-debug/include -I
/home/mreno/.clone/external/petsc/include -I
/home/mreno/.clone/external/petsc/arch-linux-c-debug/lib -I
/home/mreno/miniconda3/envs/modflow6/include -I -fdiagnostics-color=always
-imultiarch x86_64-linux-gnu -D _FILE_OFFSET_BITS=64 -D __linux__ -D
__WITH_PETSC__ -D __WITH_MPI__ -D __WITH_NETCDF__ -mtune=generic
-march=x86-64 -g -O2 -Wall -Wpedantic -Wcharacter-truncation
-Wno-unused-dummy-argument -Wno-intrinsic-shadow -Wno-maybe-uninitialized
-Wno-uninitialized -std=f2008 -fall-intrinsics -fbacktrace -fcheck=all
-ffpe-trap=overflow,zero,invalid -ffpe-summary=overflow
-ffpe-trap=overflow,zero,invalid -fPIC -J src/libmf6core.a.p
-fpre-include=/usr/include/finclude/math-vector-fortran.h

System command used to initiate simulation:
/home/mreno/.clone/usgs/w/netcdf/2/modflow6/bin/mf6

MODFLOW was compiled using uniform precision.

Real Variables
  KIND: 8
  TINY (smallest non-zero value):    2.225074-308
  HUGE (largest value):    1.797693+308
  PRECISION: 15
  SIZE IN BITS: 64

Integer Variables
  KIND: 4
  HUGE (largest value): 2147483647
  SIZE IN BITS: 32

Long Integer Variables
  KIND: 8
  HUGE (largest value): 9223372036854775807
  SIZE IN BITS: 64

Logical Variables
  KIND: 4
  SIZE IN BITS: 32


 OPENED mfsim.nam
 FILE TYPE:NAM6      UNIT 1001   STATUS:OLD                 
 FORMAT:FORMATTED              ACCESS:SEQUENTIAL          
 ACTION:READ                

 # File generated by Flopy version 3.5.0.dev0 on 10/30/2023 at 09:06:42.

 OPENED disv_with_uzf.nam
 FILE TYPE:GWF6      UNIT 1002   STATUS:OLD                 
 FORMAT:FORMATTED              ACCESS:SEQUENTIAL          
 ACTION:READ                

 # File generated by Flopy version 3.5.0.dev0 on 10/30/2023 at 09:06:42.
Model NetCDF4 Input "disv_with_uzf.nc" opened NF90_NOWRITE, ncid=65536
IDM nc modeltype=GWF6
IDM load netcdf var model=GWF6, ptype=DISV6
IDM nc4_context pkg cname=DISV_WITH_UZF, scname=DISV
IDM load nc model ctype=GWF
IDM load netcdf var model=GWF6, ptype=DISV6, sctype=DISV
Input parameter "NLAY" discovered for package "DISV_WITH_UZF/DISV".
IDM load netcdf var model=GWF6, ptype=DISV6
IDM nc4_context pkg cname=DISV_WITH_UZF, scname=DISV
IDM load nc model ctype=GWF
IDM load netcdf var model=GWF6, ptype=DISV6, sctype=DISV
Input parameter "NCPL" discovered for package "DISV_WITH_UZF/DISV".
IDM load netcdf var model=GWF6, ptype=DISV6
IDM nc4_context pkg cname=DISV_WITH_UZF, scname=DISV
IDM load nc model ctype=GWF
IDM load netcdf var model=GWF6, ptype=DISV6, sctype=DISV
Input parameter "NVERT" discovered for package "DISV_WITH_UZF/DISV".
IDM load netcdf var model=GWF6, ptype=DISV6
IDM nc4_context pkg cname=DISV_WITH_UZF, scname=DISV
IDM load nc model ctype=GWF
IDM load netcdf var model=GWF6, ptype=DISV6, sctype=DISV
Input parameter "TOP" discovered for package "DISV_WITH_UZF/DISV".
IDM load netcdf var model=GWF6, ptype=DISV6
IDM nc4_context pkg cname=DISV_WITH_UZF, scname=DISV
IDM load nc model ctype=GWF
IDM load netcdf var model=GWF6, ptype=DISV6, sctype=DISV
Input parameter "BOTM" discovered for package "DISV_WITH_UZF/DISV".
IDM load netcdf var model=GWF6, ptype=DISV6
IDM nc4_context pkg cname=DISV_WITH_UZF, scname=DISV
IDM load nc model ctype=GWF
IDM load netcdf var model=GWF6, ptype=DISV6, sctype=DISV
Input parameter "IV" discovered for package "DISV_WITH_UZF/DISV".
IDM load netcdf var model=GWF6, ptype=DISV6
IDM nc4_context pkg cname=DISV_WITH_UZF, scname=DISV
IDM load nc model ctype=GWF
IDM load netcdf var model=GWF6, ptype=DISV6, sctype=DISV
Input parameter "XV" discovered for package "DISV_WITH_UZF/DISV".
IDM load netcdf var model=GWF6, ptype=DISV6
IDM nc4_context pkg cname=DISV_WITH_UZF, scname=DISV
IDM load nc model ctype=GWF
IDM load netcdf var model=GWF6, ptype=DISV6, sctype=DISV
Input parameter "YV" discovered for package "DISV_WITH_UZF/DISV".
IDM load netcdf var model=GWF6, ptype=DISV6
IDM nc4_context pkg cname=DISV_WITH_UZF, scname=DISV
IDM load nc model ctype=GWF
IDM load netcdf var model=GWF6, ptype=DISV6, sctype=DISV
Input parameter "ICELL2D" discovered for package "DISV_WITH_UZF/DISV".
IDM load netcdf var model=GWF6, ptype=DISV6
IDM nc4_context pkg cname=DISV_WITH_UZF, scname=DISV
IDM load nc model ctype=GWF
IDM load netcdf var model=GWF6, ptype=DISV6, sctype=DISV
Input parameter "XC" discovered for package "DISV_WITH_UZF/DISV".
IDM load netcdf var model=GWF6, ptype=DISV6
IDM nc4_context pkg cname=DISV_WITH_UZF, scname=DISV
IDM load nc model ctype=GWF
IDM load netcdf var model=GWF6, ptype=DISV6, sctype=DISV
Input parameter "YC" discovered for package "DISV_WITH_UZF/DISV".
IDM load netcdf var model=GWF6, ptype=DISV6
IDM nc4_context pkg cname=DISV_WITH_UZF, scname=DISV
IDM load nc model ctype=GWF
IDM load netcdf var model=GWF6, ptype=DISV6, sctype=DISV
Input parameter "NCVERT" discovered for package "DISV_WITH_UZF/DISV".
IDM load netcdf var model=GWF6, ptype=DISV6
IDM nc4_context pkg cname=DISV_WITH_UZF, scname=DISV
IDM load nc model ctype=GWF
IDM load netcdf var model=GWF6, ptype=DISV6, sctype=DISV
Input parameter "ICVERT" discovered for package "DISV_WITH_UZF/DISV".
IDM load netcdf var model=GWF6, ptype=NPF6
IDM nc4_context pkg cname=DISV_WITH_UZF, scname=DISV
IDM nc4_context pkg cname=DISV_WITH_UZF, scname=NPF
IDM load nc model ctype=GWF
IDM load netcdf var model=GWF6, ptype=NPF6, sctype=NPF
Input parameter "SAVE_FLOWS" discovered for package "DISV_WITH_UZF/NPF".
IDM load netcdf var model=GWF6, ptype=NPF6
IDM nc4_context pkg cname=DISV_WITH_UZF, scname=DISV
IDM nc4_context pkg cname=DISV_WITH_UZF, scname=NPF
IDM load nc model ctype=GWF
IDM load netcdf var model=GWF6, ptype=NPF6, sctype=NPF
Input parameter "ICELLTYPE" discovered for package "DISV_WITH_UZF/NPF".
IDM load netcdf var model=GWF6, ptype=NPF6
IDM nc4_context pkg cname=DISV_WITH_UZF, scname=DISV
IDM nc4_context pkg cname=DISV_WITH_UZF, scname=NPF
IDM load nc model ctype=GWF
IDM load netcdf var model=GWF6, ptype=NPF6, sctype=NPF
Input parameter "K" discovered for package "DISV_WITH_UZF/NPF".
IDM load netcdf var model=GWF6, ptype=NPF6
IDM nc4_context pkg cname=DISV_WITH_UZF, scname=DISV
IDM nc4_context pkg cname=DISV_WITH_UZF, scname=NPF
IDM load nc model ctype=GWF
IDM load netcdf var model=GWF6, ptype=NPF6, sctype=NPF
Input parameter "K33" discovered for package "DISV_WITH_UZF/NPF".
IDM load netcdf var model=GWF6, ptype=GHB6
IDM nc4_context pkg cname=DISV_WITH_UZF, scname=DISV
IDM nc4_context pkg cname=DISV_WITH_UZF, scname=NPF
IDM nc4_context pkg cname=DISV_WITH_UZF, scname=GHB_0
IDM load nc model ctype=GWF
IDM load netcdf var model=GWF6, ptype=GHB6, sctype=GHB
Input parameter "PRINT_FLOWS" discovered for package "DISV_WITH_UZF/GHB_0".
IDM load netcdf var model=GWF6, ptype=GHB6
IDM nc4_context pkg cname=DISV_WITH_UZF, scname=DISV
IDM nc4_context pkg cname=DISV_WITH_UZF, scname=NPF
IDM nc4_context pkg cname=DISV_WITH_UZF, scname=GHB_0
IDM load nc model ctype=GWF
IDM load netcdf var model=GWF6, ptype=GHB6, sctype=GHB
Input parameter "MAXBOUND" discovered for package "DISV_WITH_UZF/GHB_0".
IDM load netcdf var model=GWF6, ptype=GHB6
IDM nc4_context pkg cname=DISV_WITH_UZF, scname=DISV
IDM nc4_context pkg cname=DISV_WITH_UZF, scname=NPF
IDM nc4_context pkg cname=DISV_WITH_UZF, scname=GHB_0
IDM load nc model ctype=GWF
IDM load netcdf var model=GWF6, ptype=GHB6
IDM nc4_context pkg cname=DISV_WITH_UZF, scname=DISV
IDM nc4_context pkg cname=DISV_WITH_UZF, scname=NPF
IDM nc4_context pkg cname=DISV_WITH_UZF, scname=GHB_0
IDM load nc model ctype=GWF
IDM load netcdf var model=GWF6, ptype=GHB6, sctype=GHB
Input parameter "CELLID" discovered for package "DISV_WITH_UZF/GHB_0".
IDM load netcdf var model=GWF6, ptype=GHB6
IDM nc4_context pkg cname=DISV_WITH_UZF, scname=DISV
IDM nc4_context pkg cname=DISV_WITH_UZF, scname=NPF
IDM nc4_context pkg cname=DISV_WITH_UZF, scname=GHB_0
IDM load nc model ctype=GWF
IDM load netcdf var model=GWF6, ptype=GHB6, sctype=GHB
Input parameter "BHEAD" discovered for package "DISV_WITH_UZF/GHB_0".
IDM load netcdf var model=GWF6, ptype=GHB6
IDM nc4_context pkg cname=DISV_WITH_UZF, scname=DISV
IDM nc4_context pkg cname=DISV_WITH_UZF, scname=NPF
IDM nc4_context pkg cname=DISV_WITH_UZF, scname=GHB_0
IDM load nc model ctype=GWF
IDM load netcdf var model=GWF6, ptype=GHB6, sctype=GHB
Input parameter "COND" discovered for package "DISV_WITH_UZF/GHB_0".
IDM input_load pkg=DISV
IDM NF90_MAX_DIMS=1024
IDM NF90_MAX_VAR_DIMS=1024
varname=NLAY, type=INTEGER
varname=NCPL, type=INTEGER
varname=NVERT, type=INTEGER
varname=TOP, type=DOUBLE1D
varname=BOTM, type=DOUBLE2D
varname=IV, type=INTEGER1D
varname=XV, type=DOUBLE1D
varname=YV, type=DOUBLE1D
varname=ICELL2D, type=INTEGER1D
varname=XC, type=DOUBLE1D
varname=YC, type=DOUBLE1D
varname=NCVERT, type=INTEGER1D
    ALL SIMULATION MEMORY INFORMATION WILL BE WRITTEN.

 DETAILED INFORMATION ON VARIABLES STORED IN THE MEMORY MANAGER
 -----------------------------------------------------------------------------------------------------------------------------------------------------------------------------
 ORIGIN                                             VARIABLE NAME    DATA TYPE             NUMBER OF ITEMS ASSOCIATED VARIABLE                                                
 -----------------------------------------------------------------------------------------------------------------------------------------------------------------------------
 __INPUT__/SIM/NAM                                  TDIS6            STRING LEN=300                      1 --                                                                 
 __INPUT__/SIM/NAM                                  MTYPE            STRING LEN=300                      1 --                                                                 
 __INPUT__/SIM/NAM                                  MFNAME           STRING LEN=300                      1 --                                                                 
 __INPUT__/SIM/NAM                                  MNAME            STRING LEN=300                      1 --                                                                 
 __INPUT__/SIM/NAM                                  EXGTYPE          STRING LEN=300                      0 --                                                                 
 __INPUT__/SIM/NAM                                  EXGFILE          STRING LEN=300                      0 --                                                                 
 __INPUT__/SIM/NAM                                  EXGMNAMEA        STRING LEN=300                      0 --                                                                 
 __INPUT__/SIM/NAM                                  EXGMNAMEB        STRING LEN=300                      0 --                                                                 
 __INPUT__/SIM/NAM                                  SOLUTIONGROUPNUM INTEGER                             1 --                                                                 
 __INPUT__/SIM/NAM                                  SLNTYPE          STRING LEN=300                      1 --                                                                 
 __INPUT__/SIM/NAM                                  SLNFNAME         STRING LEN=300                      1 --                                                                 
 __INPUT__/SIM/NAM                                  SLNMNAMES        STRING LEN=300                      1 --                                                                 
 __INPUT__/SIM/NAM                                  CONTINUE         INTEGER                             1 --                                                                 
 __INPUT__/SIM/NAM                                  NOCHECK          INTEGER                             1 --                                                                 
 __INPUT__/SIM/NAM                                  PRMEM            STRING LEN=300                      1 --                                                                 
 __INPUT__/SIM/NAM                                  MAXERRORS        INTEGER                             1 --                                                                 
 __INPUT__/SIM/NAM                                  PRINT_INPUT      INTEGER                             1 --                                                                 
 __INPUT__/SIM/NAM                                  MXITER           INTEGER                             1 --                                                                 
 __INPUT__/SIM                                      NUMMODELS        INTEGER                             1 --                                                                 
 __INPUT__/SIM                                      NUMEXCHANGES     INTEGER                             1 --                                                                 
 __INPUT__/DISV_WITH_UZF/NAM                        SAVE_FLOWS       INTEGER                             1 --                                                                 
 __INPUT__/DISV_WITH_UZF/NAM                        NEWTON           INTEGER                             1 --                                                                 
 __INPUT__/DISV_WITH_UZF/NAM                        FTYPE            STRING LEN=300                      8 --                                                                 
 __INPUT__/DISV_WITH_UZF/NAM                        FNAME            STRING LEN=300                      8 --                                                                 
 __INPUT__/DISV_WITH_UZF/NAM                        PNAME            STRING LEN=300                      8 --                                                                 
 __INPUT__/DISV_WITH_UZF                            PKGTYPES         STRING LEN=7                        0 --                                                                 
 __INPUT__/DISV_WITH_UZF                            PKGNAMES         STRING LEN=16                       0 --                                                                 
 __INPUT__/DISV_WITH_UZF                            MEMPATHS         STRING LEN=50                       0 --                                                                 
 __INPUT__/DISV_WITH_UZF                            INUNITS          INTEGER                             0 --                                                                 
 __INPUT__/DISV_WITH_UZF/DISV                       INPUT_FNAME      STRING LEN=300                      1 --                                                                 
 __INPUT__/DISV_WITH_UZF/NPF                        INPUT_FNAME      STRING LEN=300                      1 --                                                                 
 __INPUT__/DISV_WITH_UZF/GHB_0                      INPUT_FNAME      STRING LEN=300                      1 --                                                                 
 __INPUT__/DISV_WITH_UZF/DISV                       NLAY             INTEGER                             1 --                                                                 
 __INPUT__/DISV_WITH_UZF/DISV                       NCPL             INTEGER                             1 --                                                                 
 __INPUT__/DISV_WITH_UZF/DISV                       NVERT            INTEGER                             1 --                                                                 
 __INPUT__/DISV_WITH_UZF                            MODEL_SHAPE      INTEGER                             2 --                                                                 
 __INPUT__/DISV_WITH_UZF                            NCELLDIM         INTEGER                             1 --                                                                 
 __INPUT__/DISV_WITH_UZF/DISV                       TOP              DOUBLE                            100 --                                                                 
 __INPUT__/DISV_WITH_UZF/DISV                       BOTM             DOUBLE                            500 --                                                                 
 __INPUT__/DISV_WITH_UZF/DISV                       IV               INTEGER                           121 --                                                                 
 __INPUT__/DISV_WITH_UZF/DISV                       XV               DOUBLE                            121 --                                                                 
 __INPUT__/DISV_WITH_UZF/DISV                       YV               DOUBLE                            121 --                                                                 
 __INPUT__/DISV_WITH_UZF/DISV                       ICELL2D          INTEGER                           100 --                                                                 
 __INPUT__/DISV_WITH_UZF/DISV                       XC               DOUBLE                            100 --                                                                 
 __INPUT__/DISV_WITH_UZF/DISV                       YC               DOUBLE                            100 --                                                                 
 __INPUT__/DISV_WITH_UZF/DISV                       NCVERT           INTEGER                           100 --                                                                 
 __INPUT__/DISV_WITH_UZF/DISV                       ICVERT           INTEGER                           400 --                                                                 
 -----------------------------------------------------------------------------------------------------------------------------------------------------------------------------



 MEMORY MANAGER TOTAL STORAGE BY DATA TYPE, IN KILOBYTES
 -------------------------------
                    ALLOCATED   
 DATA TYPE           MEMORY     
 -------------------------------
 Character        1.5300000     
 Logical          0.0000000     
 Integer          2.9480000     
 Real             8.3360000     
 -------------------------------
 Total            12.814000     
 Virtual          0.0000000     
 -------------------------------


IDM input_load pkg=NPF
IDM NF90_MAX_DIMS=1024
IDM NF90_MAX_VAR_DIMS=1024
varname=IPAKCB, type=KEYWORD
varname=ICELLTYPE, type=INTEGER1D
varname=K, type=DOUBLE1D
varname=K33, type=DOUBLE1D
    ALL SIMULATION MEMORY INFORMATION WILL BE WRITTEN.

 DETAILED INFORMATION ON VARIABLES STORED IN THE MEMORY MANAGER
 -----------------------------------------------------------------------------------------------------------------------------------------------------------------------------
 ORIGIN                                             VARIABLE NAME    DATA TYPE             NUMBER OF ITEMS ASSOCIATED VARIABLE                                                
 -----------------------------------------------------------------------------------------------------------------------------------------------------------------------------
 __INPUT__/SIM/NAM                                  TDIS6            STRING LEN=300                      1 --                                                                 
 __INPUT__/SIM/NAM                                  MTYPE            STRING LEN=300                      1 --                                                                 
 __INPUT__/SIM/NAM                                  MFNAME           STRING LEN=300                      1 --                                                                 
 __INPUT__/SIM/NAM                                  MNAME            STRING LEN=300                      1 --                                                                 
 __INPUT__/SIM/NAM                                  EXGTYPE          STRING LEN=300                      0 --                                                                 
 __INPUT__/SIM/NAM                                  EXGFILE          STRING LEN=300                      0 --                                                                 
 __INPUT__/SIM/NAM                                  EXGMNAMEA        STRING LEN=300                      0 --                                                                 
 __INPUT__/SIM/NAM                                  EXGMNAMEB        STRING LEN=300                      0 --                                                                 
 __INPUT__/SIM/NAM                                  SOLUTIONGROUPNUM INTEGER                             1 --                                                                 
 __INPUT__/SIM/NAM                                  SLNTYPE          STRING LEN=300                      1 --                                                                 
 __INPUT__/SIM/NAM                                  SLNFNAME         STRING LEN=300                      1 --                                                                 
 __INPUT__/SIM/NAM                                  SLNMNAMES        STRING LEN=300                      1 --                                                                 
 __INPUT__/SIM/NAM                                  CONTINUE         INTEGER                             1 --                                                                 
 __INPUT__/SIM/NAM                                  NOCHECK          INTEGER                             1 --                                                                 
 __INPUT__/SIM/NAM                                  PRMEM            STRING LEN=300                      1 --                                                                 
 __INPUT__/SIM/NAM                                  MAXERRORS        INTEGER                             1 --                                                                 
 __INPUT__/SIM/NAM                                  PRINT_INPUT      INTEGER                             1 --                                                                 
 __INPUT__/SIM/NAM                                  MXITER           INTEGER                             1 --                                                                 
 __INPUT__/SIM                                      NUMMODELS        INTEGER                             1 --                                                                 
 __INPUT__/SIM                                      NUMEXCHANGES     INTEGER                             1 --                                                                 
 __INPUT__/DISV_WITH_UZF/NAM                        SAVE_FLOWS       INTEGER                             1 --                                                                 
 __INPUT__/DISV_WITH_UZF/NAM                        NEWTON           INTEGER                             1 --                                                                 
 __INPUT__/DISV_WITH_UZF/NAM                        FTYPE            STRING LEN=300                      8 --                                                                 
 __INPUT__/DISV_WITH_UZF/NAM                        FNAME            STRING LEN=300                      8 --                                                                 
 __INPUT__/DISV_WITH_UZF/NAM                        PNAME            STRING LEN=300                      8 --                                                                 
 __INPUT__/DISV_WITH_UZF                            PKGTYPES         STRING LEN=7                        0 --                                                                 
 __INPUT__/DISV_WITH_UZF                            PKGNAMES         STRING LEN=16                       0 --                                                                 
 __INPUT__/DISV_WITH_UZF                            MEMPATHS         STRING LEN=50                       0 --                                                                 
 __INPUT__/DISV_WITH_UZF                            INUNITS          INTEGER                             0 --                                                                 
 __INPUT__/DISV_WITH_UZF/DISV                       INPUT_FNAME      STRING LEN=300                      1 --                                                                 
 __INPUT__/DISV_WITH_UZF/NPF                        INPUT_FNAME      STRING LEN=300                      1 --                                                                 
 __INPUT__/DISV_WITH_UZF/GHB_0                      INPUT_FNAME      STRING LEN=300                      1 --                                                                 
 __INPUT__/DISV_WITH_UZF/DISV                       NLAY             INTEGER                             1 --                                                                 
 __INPUT__/DISV_WITH_UZF/DISV                       NCPL             INTEGER                             1 --                                                                 
 __INPUT__/DISV_WITH_UZF/DISV                       NVERT            INTEGER                             1 --                                                                 
 __INPUT__/DISV_WITH_UZF                            MODEL_SHAPE      INTEGER                             2 --                                                                 
 __INPUT__/DISV_WITH_UZF                            NCELLDIM         INTEGER                             1 --                                                                 
 __INPUT__/DISV_WITH_UZF/DISV                       TOP              DOUBLE                            100 --                                                                 
 __INPUT__/DISV_WITH_UZF/DISV                       BOTM             DOUBLE                            500 --                                                                 
 __INPUT__/DISV_WITH_UZF/DISV                       IV               INTEGER                           121 --                                                                 
 __INPUT__/DISV_WITH_UZF/DISV                       XV               DOUBLE                            121 --                                                                 
 __INPUT__/DISV_WITH_UZF/DISV                       YV               DOUBLE                            121 --                                                                 
 __INPUT__/DISV_WITH_UZF/DISV                       ICELL2D          INTEGER                           100 --                                                                 
 __INPUT__/DISV_WITH_UZF/DISV                       XC               DOUBLE                            100 --                                                                 
 __INPUT__/DISV_WITH_UZF/DISV                       YC               DOUBLE                            100 --                                                                 
 __INPUT__/DISV_WITH_UZF/DISV                       NCVERT           INTEGER                           100 --                                                                 
 __INPUT__/DISV_WITH_UZF/DISV                       ICVERT           INTEGER                           400 --                                                                 
 __INPUT__/DISV_WITH_UZF/NPF                        IPAKCB           INTEGER                             1 --                                                                 
 __INPUT__/DISV_WITH_UZF/NPF                        ICELLTYPE        INTEGER                           500 --                                                                 
 __INPUT__/DISV_WITH_UZF/NPF                        K                DOUBLE                            500 --                                                                 
 __INPUT__/DISV_WITH_UZF/NPF                        K33              DOUBLE                            500 --                                                                 
 -----------------------------------------------------------------------------------------------------------------------------------------------------------------------------



 MEMORY MANAGER TOTAL STORAGE BY DATA TYPE, IN KILOBYTES
 -------------------------------
                    ALLOCATED   
 DATA TYPE           MEMORY     
 -------------------------------
 Character        1.5300000     
 Logical          0.0000000     
 Integer          4.9520000     
 Real             16.336000     
 -------------------------------
 Total            22.818000     
 Virtual          0.0000000     
 -------------------------------



 OPENED disv_with_uzf.sto
 FILE TYPE:STO6      UNIT 1003   STATUS:OLD                 
 FORMAT:FORMATTED              ACCESS:SEQUENTIAL          
 ACTION:READ                


 OPENED disv_with_uzf.ic
 FILE TYPE:IC6       UNIT 1004   STATUS:OLD                 
 FORMAT:FORMATTED              ACCESS:SEQUENTIAL          
 ACTION:READ                


 OPENED disv_with_uzf.oc
 FILE TYPE:OC6       UNIT 1005   STATUS:OLD                 
 FORMAT:FORMATTED              ACCESS:SEQUENTIAL          
 ACTION:READ                


 OPENED disv_with_uzf.obs
 FILE TYPE:OBS6      UNIT 1006   STATUS:OLD                 
 FORMAT:FORMATTED              ACCESS:SEQUENTIAL          
 ACTION:READ                

IDM input_load pkg=GHB_0
IDM NF90_MAX_DIMS=1024
IDM NF90_MAX_VAR_DIMS=1024
varname=IPRFLOW, type=KEYWORD
varname=MAXBOUND, type=INTEGER
    ALL SIMULATION MEMORY INFORMATION WILL BE WRITTEN.

 DETAILED INFORMATION ON VARIABLES STORED IN THE MEMORY MANAGER
 -----------------------------------------------------------------------------------------------------------------------------------------------------------------------------
 ORIGIN                                             VARIABLE NAME    DATA TYPE             NUMBER OF ITEMS ASSOCIATED VARIABLE                                                
 -----------------------------------------------------------------------------------------------------------------------------------------------------------------------------
 __INPUT__/SIM/NAM                                  TDIS6            STRING LEN=300                      1 --                                                                 
 __INPUT__/SIM/NAM                                  MTYPE            STRING LEN=300                      1 --                                                                 
 __INPUT__/SIM/NAM                                  MFNAME           STRING LEN=300                      1 --                                                                 
 __INPUT__/SIM/NAM                                  MNAME            STRING LEN=300                      1 --                                                                 
 __INPUT__/SIM/NAM                                  EXGTYPE          STRING LEN=300                      0 --                                                                 
 __INPUT__/SIM/NAM                                  EXGFILE          STRING LEN=300                      0 --                                                                 
 __INPUT__/SIM/NAM                                  EXGMNAMEA        STRING LEN=300                      0 --                                                                 
 __INPUT__/SIM/NAM                                  EXGMNAMEB        STRING LEN=300                      0 --                                                                 
 __INPUT__/SIM/NAM                                  SOLUTIONGROUPNUM INTEGER                             1 --                                                                 
 __INPUT__/SIM/NAM                                  SLNTYPE          STRING LEN=300                      1 --                                                                 
 __INPUT__/SIM/NAM                                  SLNFNAME         STRING LEN=300                      1 --                                                                 
 __INPUT__/SIM/NAM                                  SLNMNAMES        STRING LEN=300                      1 --                                                                 
 __INPUT__/SIM/NAM                                  CONTINUE         INTEGER                             1 --                                                                 
 __INPUT__/SIM/NAM                                  NOCHECK          INTEGER                             1 --                                                                 
 __INPUT__/SIM/NAM                                  PRMEM            STRING LEN=300                      1 --                                                                 
 __INPUT__/SIM/NAM                                  MAXERRORS        INTEGER                             1 --                                                                 
 __INPUT__/SIM/NAM                                  PRINT_INPUT      INTEGER                             1 --                                                                 
 __INPUT__/SIM/NAM                                  MXITER           INTEGER                             1 --                                                                 
 __INPUT__/SIM                                      NUMMODELS        INTEGER                             1 --                                                                 
 __INPUT__/SIM                                      NUMEXCHANGES     INTEGER                             1 --                                                                 
 __INPUT__/DISV_WITH_UZF/NAM                        SAVE_FLOWS       INTEGER                             1 --                                                                 
 __INPUT__/DISV_WITH_UZF/NAM                        NEWTON           INTEGER                             1 --                                                                 
 __INPUT__/DISV_WITH_UZF/NAM                        FTYPE            STRING LEN=300                      8 --                                                                 
 __INPUT__/DISV_WITH_UZF/NAM                        FNAME            STRING LEN=300                      8 --                                                                 
 __INPUT__/DISV_WITH_UZF/NAM                        PNAME            STRING LEN=300                      8 --                                                                 
 __INPUT__/DISV_WITH_UZF                            PKGTYPES         STRING LEN=7                        0 --                                                                 
 __INPUT__/DISV_WITH_UZF                            PKGNAMES         STRING LEN=16                       0 --                                                                 
 __INPUT__/DISV_WITH_UZF                            MEMPATHS         STRING LEN=50                       0 --                                                                 
 __INPUT__/DISV_WITH_UZF                            INUNITS          INTEGER                             0 --                                                                 
 __INPUT__/DISV_WITH_UZF/DISV                       INPUT_FNAME      STRING LEN=300                      1 --                                                                 
 __INPUT__/DISV_WITH_UZF/NPF                        INPUT_FNAME      STRING LEN=300                      1 --                                                                 
 __INPUT__/DISV_WITH_UZF/GHB_0                      INPUT_FNAME      STRING LEN=300                      1 --                                                                 
 __INPUT__/DISV_WITH_UZF/DISV                       NLAY             INTEGER                             1 --                                                                 
 __INPUT__/DISV_WITH_UZF/DISV                       NCPL             INTEGER                             1 --                                                                 
 __INPUT__/DISV_WITH_UZF/DISV                       NVERT            INTEGER                             1 --                                                                 
 __INPUT__/DISV_WITH_UZF                            MODEL_SHAPE      INTEGER                             2 --                                                                 
 __INPUT__/DISV_WITH_UZF                            NCELLDIM         INTEGER                             1 --                                                                 
 __INPUT__/DISV_WITH_UZF/DISV                       TOP              DOUBLE                            100 --                                                                 
 __INPUT__/DISV_WITH_UZF/DISV                       BOTM             DOUBLE                            500 --                                                                 
 __INPUT__/DISV_WITH_UZF/DISV                       IV               INTEGER                           121 --                                                                 
 __INPUT__/DISV_WITH_UZF/DISV                       XV               DOUBLE                            121 --                                                                 
 __INPUT__/DISV_WITH_UZF/DISV                       YV               DOUBLE                            121 --                                                                 
 __INPUT__/DISV_WITH_UZF/DISV                       ICELL2D          INTEGER                           100 --                                                                 
 __INPUT__/DISV_WITH_UZF/DISV                       XC               DOUBLE                            100 --                                                                 
 __INPUT__/DISV_WITH_UZF/DISV                       YC               DOUBLE                            100 --                                                                 
 __INPUT__/DISV_WITH_UZF/DISV                       NCVERT           INTEGER                           100 --                                                                 
 __INPUT__/DISV_WITH_UZF/DISV                       ICVERT           INTEGER                           400 --                                                                 
 __INPUT__/DISV_WITH_UZF/NPF                        IPAKCB           INTEGER                             1 --                                                                 
 __INPUT__/DISV_WITH_UZF/NPF                        ICELLTYPE        INTEGER                           500 --                                                                 
 __INPUT__/DISV_WITH_UZF/NPF                        K                DOUBLE                            500 --                                                                 
 __INPUT__/DISV_WITH_UZF/NPF                        K33              DOUBLE                            500 --                                                                 
 __INPUT__/DISV_WITH_UZF/GHB_0                      IPRFLOW          INTEGER                             1 --                                                                 
 __INPUT__/DISV_WITH_UZF/GHB_0                      NAUX             INTEGER                             1 --                                                                 
 __INPUT__/DISV_WITH_UZF/GHB_0                      MAXBOUND         INTEGER                             1 --                                                                 
 __INPUT__/DISV_WITH_UZF/GHB_0                      IPER             INTEGER                             1 --                                                                 
 __INPUT__/DISV_WITH_UZF/GHB_0                      IONPER           INTEGER                             1 --                                                                 
 __INPUT__/DISV_WITH_UZF/GHB_0                      NBOUND           INTEGER                             1 --                                                                 
 __INPUT__/DISV_WITH_UZF/GHB_0                      NCPL             INTEGER                             1 --                                                                 
 __INPUT__/DISV_WITH_UZF/GHB_0                      AUXILIARY        STRING LEN=16                       0 --                                                                 
 __INPUT__/DISV_WITH_UZF/GHB_0                      CELLID           INTEGER                            40 --                                                                 
 __INPUT__/DISV_WITH_UZF/GHB_0                      BHEAD            DOUBLE                             20 --                                                                 
 __INPUT__/DISV_WITH_UZF/GHB_0                      COND             DOUBLE                             20 --                                                                 
 __INPUT__/DISV_WITH_UZF/GHB_0                      BOUNDNAME        STRING LEN=40                       0 --                                                                 
 __INPUT__/DISV_WITH_UZF/GHB_0                      AUXVAR           DOUBLE                              0 --                                                                 
 -----------------------------------------------------------------------------------------------------------------------------------------------------------------------------



 MEMORY MANAGER TOTAL STORAGE BY DATA TYPE, IN KILOBYTES
 -------------------------------
                    ALLOCATED   
 DATA TYPE           MEMORY     
 -------------------------------
 Character        1.5300000     
 Logical          0.0000000     
 Integer          5.1400000     
 Real             16.656000     
 -------------------------------
 Total            23.326000     
 Virtual          0.0000000     
 -------------------------------



 OPENED disv_with_uzf.uzf
 FILE TYPE:UZF6      UNIT 1007   STATUS:OLD                 
 FORMAT:FORMATTED              ACCESS:SEQUENTIAL          
 ACTION:READ                


 READING SIMULATION OPTIONS
    MAXIMUM NUMBER OF ERRORS THAT WILL BE STORED IS 1000
 END OF SIMULATION OPTIONS

 READING SIMULATION TIMING

 OPENED disv_with_uzf.tdis
 FILE TYPE:TDIS   UNIT 1008   STATUS:OLD                 
 FORMAT:FORMATTED              ACCESS:SEQUENTIAL          
 ACTION:READ                


 TDIS -- TEMPORAL DISCRETIZATION PACKAGE,
 VERSION 1 : 11/13/2014 - INPUT READ FROM UNIT 1008
 # File generated by Flopy version 3.5.0.dev0 on 10/30/2023 at 09:06:42.
 PROCESSING TDIS OPTIONS
    SIMULATION TIME UNIT IS DAYS
 END OF TDIS OPTIONS
 PROCESSING TDIS DIMENSIONS
    5 STRESS PERIOD(S) IN SIMULATION
 END OF TDIS DIMENSIONS
 PROCESSING TDIS PERIODDATA


 STRESS PERIOD     LENGTH       TIME STEPS     MULTIPLIER FOR DELT
 ----------------------------------------------------------------------------
        1         10.00000          5                    1.000
        2         10.00000          5                    1.000
        3         10.00000          5                    1.000
        4         10.00000          5                    1.000
        5         10.00000          5                    1.000
 END OF TDIS PERIODDATA
 END OF SIMULATION TIMING

 READING SIMULATION MODELS
    GWF6 model 1 will be created
 END OF SIMULATION MODELS

 READING SIMULATION EXCHANGES
 END OF SIMULATION EXCHANGES

 READING SOLUTIONGROUP

 Creating solution: SLN_1           

 OPENED disv_with_uzf.ims
 FILE TYPE:IMS   UNIT 1010   STATUS:OLD                 
 FORMAT:FORMATTED              ACCESS:SEQUENTIAL          
 ACTION:READ                

 END OF SOLUTIONGROUP

PROCESSING MODEL CONNECTIONS

 IMS -- ITERATIVE MODEL SOLUTION PACKAGE, VERSION 6, 4/28/2017
         INPUT READ FROM UNIT 1010
 # File generated by Flopy version 3.5.0.dev0 on 10/30/2023 at 09:06:42.

 PROCESSING IMS OPTIONS
 MODERATE OPTION:
 DEFAULT SOLVER INPUT VALUES REFLECT MODERETELY NONLINEAR MODEL
 END OF IMS OPTIONS

 PROCESSING IMS NONLINEAR
 END OF IMS NONLINEAR DATA
 **UNDER-RELAXATION WILL BE USED***


 PROCESSING LINEAR DATA
 END OF LINEAR DATA
 ***IMS LINEAR SOLVER WILL BE USED***

 IMSLINEAR -- UNSTRUCTURED LINEAR SOLUTION PACKAGE, VERSION 8, 04/28/2017
 An asymmetric matrix will be solved

 OUTER ITERATION CONVERGENCE CRITERION    (DVCLOSE) =    0.100000E-08
 MAXIMUM NUMBER OF OUTER ITERATIONS        (MXITER) = 100
 SOLVER PRINTOUT INDEX                     (IPRIMS) = 1
 NONLINEAR ITERATION METHOD            (NONLINMETH) = 3
 LINEAR SOLUTION METHOD                   (LINMETH) = 1
 UNDER-RELAXATION WEIGHT REDUCTION FACTOR   (THETA) =    0.900000E+00
 UNDER-RELAXATION WEIGHT INCREASE INCREMENT (KAPPA) =    0.100000E-03
 UNDER-RELAXATION PREVIOUS HISTORY FACTOR   (GAMMA) =    0.000000E+00
 UNDER-RELAXATION MOMENTUM TERM         (AMOMENTUM) =    0.000000E+00

       SOLUTION BY THE BICONJUGATE-GRADIENT STABILIZED METHOD
 ------------------------------------------------------------------
 MAXIMUM OF 100 CALLS OF SOLUTION ROUTINE
 MAXIMUM OF 300 INTERNAL ITERATIONS PER CALL TO SOLUTION ROUTINE
 LINEAR ACCELERATION METHOD            = BCGS      
 MATRIX PRECONDITIONING TYPE           = MOD. INCOMPLETE LU  
 MATRIX SCALING APPROACH               = NO SCALING          
 MATRIX REORDERING APPROACH            = ORIGINAL ORDERING        
 NUMBER OF ORTHOGONALIZATIONS          = 0
 HEAD CHANGE CRITERION FOR CLOSURE     =    0.10000E-08
 RESIDUAL CHANGE CRITERION FOR CLOSURE =    0.10000E-02
 RESIDUAL CONVERGENCE OPTION           = 0
 RESIDUAL CONVERGENCE NORM             = INFINITY NORM   
 RELAXATION FACTOR                     =    0.97000E+00




    Solving:  Stress period:     1    Time step:     1

1
                            STRESS PERIOD NO. 1, LENGTH =   10.00000    
                            -----------------------------------------------
                            NUMBER OF TIME STEPS = 5
                            MULTIPLIER FOR DELT =     1.000
IDM inlist_rp iiper=1
IDM RP LIST kper=1
IDM RP LIST varname=CELLID, type=INTEGER1D
Found INODATA CELLIDsize m=2size n=20
CELLID FIRST SET nbound=20
IDM RP LIST varname=BHEAD, type=DOUBLE
IDM RP LIST varname=COND, type=DOUBLE
                            INITIAL TIME STEP SIZE =   2.000000    

 SLN_1 OUTER ITERATION SUMMARY
 ----------------------------------------------------------------------------------------------------------
                                OUTER      INNER                    STEP   MAXIMUM CHANGE MODEL-(CELLID) OR
 OUTER ITERATION STEP       ITERATION  ITERATION  MAXIMUM CHANGE SUCCESS             MODEL-PACKAGE-(NUMBER)
 ----------------------------------------------------------------------------------------------------------
 Model                              1         18      -5.9999351                               1_GWF-(5,10)
 Model                              2         17      -1.1332456                                1_GWF-(1,1)
 Model                              3         12     -0.38361681                                1_GWF-(1,1)
 Model                              4         14     -0.12697473                               1_GWF-(1,51)
 Model                              5         13 -3.88790415E-02                               1_GWF-(1,61)
 Model                              6         12 -1.24040184E-02                               1_GWF-(1,11)
 Model                              7         11 -3.97301565E-03                               1_GWF-(1,51)
 Model                              8         11 -1.27873124E-03                               1_GWF-(1,51)
 Model                              9         10 -4.13524984E-04                                1_GWF-(1,1)
 Model                             10          9 -1.34317303E-04                               1_GWF-(1,91)
 Model                             11          9 -4.38014489E-05                               1_GWF-(1,91)
 Model                             12          8 -1.43349352E-05                                1_GWF-(1,1)
 Model                             13          7 -4.70616950E-06                                1_GWF-(1,1)
 Model                             14          7 -1.54973071E-06                               1_GWF-(1,91)
 Model                             15          6 -5.11611788E-07                               1_GWF-(1,91)
 Model                             16          6 -1.72259785E-07                               1_GWF-(2,10)
 Model                             17          5 -6.01656858E-08                              1_GWF-(2,100)
 Model                             18          4 -2.12083222E-08                               1_GWF-(2,20)
 Model                             19          3 -7.74852182E-09                               1_GWF-(2,20)
 Model                             20          2 -1.82524218E-09                                1_GWF-(1,1)
 Model                             21          1 -4.40124381E-10       *                        1_GWF-(1,1)
 Package                           21             1.23717037E-10       *               1_GWF-UZF_0-(1)-rech
 ----------------------------------------------------------------------------------------------------------


 21 CALLS TO NUMERICAL SOLUTION IN TIME STEP 1 STRESS PERIOD 1
 185 TOTAL ITERATIONS

    Solving:  Stress period:     1    Time step:     2


 SLN_1 OUTER ITERATION SUMMARY
 ----------------------------------------------------------------------------------------------------------
                                OUTER      INNER                    STEP   MAXIMUM CHANGE MODEL-(CELLID) OR
 OUTER ITERATION STEP       ITERATION  ITERATION  MAXIMUM CHANGE SUCCESS             MODEL-PACKAGE-(NUMBER)
 ----------------------------------------------------------------------------------------------------------
 Model                              1         14     -0.71196323                               1_GWF-(1,99)
 Model                              2         14     -0.99969019                               1_GWF-(1,88)
 Model                              3         12 -8.89456951E-02                                1_GWF-(1,8)
 Model                              4         11 -6.32321202E-03                               1_GWF-(2,60)
 Model                              5          9 -1.17821672E-03                               1_GWF-(2,80)
 Model                              6          9 -2.63198280E-04                               1_GWF-(1,18)
 Model                              7          9 -7.80810406E-05                               1_GWF-(1,27)
 Model                              8          6 -2.48597120E-05                               1_GWF-(1,97)
 Model                              9          6 -7.64322768E-06                               1_GWF-(1,57)
 Model                             10          6 -2.30070345E-06                               1_GWF-(1,17)
 Model                             11          6 -6.82597584E-07                               1_GWF-(1,87)
 Model                             12          4 -1.99756460E-07                               1_GWF-(1,87)
 Model                             13          3 -5.87340843E-08                                1_GWF-(1,7)
 Model                             14          3 -1.73918409E-08                               1_GWF-(1,17)
 Model                             15          3 -3.83917609E-09                               1_GWF-(1,17)
 Model                             16          1 -2.70809153E-10       *                       1_GWF-(1,17)
 Package                           16             2.34496256E-10       *              1_GWF-UZF_0-(17)-rech
 ----------------------------------------------------------------------------------------------------------


 16 CALLS TO NUMERICAL SOLUTION IN TIME STEP 2 STRESS PERIOD 1
 116 TOTAL ITERATIONS

    Solving:  Stress period:     1    Time step:     3


 SLN_1 OUTER ITERATION SUMMARY
 ----------------------------------------------------------------------------------------------------------
                                OUTER      INNER                    STEP   MAXIMUM CHANGE MODEL-(CELLID) OR
 OUTER ITERATION STEP       ITERATION  ITERATION  MAXIMUM CHANGE SUCCESS             MODEL-PACKAGE-(NUMBER)
 ----------------------------------------------------------------------------------------------------------
 Model                              1         13     -0.45591400                               1_GWF-(1,28)
 Model                              2         13      -1.0240714                               1_GWF-(1,97)
 Model                              3         12 -7.29715391E-02                               1_GWF-(1,87)
 Model                              4         11 -8.08484249E-03                               1_GWF-(1,68)
 Model                              5         10 -2.36465212E-03                               1_GWF-(1,18)
 Model                              6          9 -6.23128891E-04                                1_GWF-(1,8)
 Model                              7          9 -1.57309570E-04                               1_GWF-(1,18)
 Model                              8         12 -3.90870751E-05                                1_GWF-(1,8)
 Model                              9          7 -9.70038340E-06                               1_GWF-(1,98)
 Model                             10          5 -2.42715535E-06                               1_GWF-(1,18)
 Model                             11          6 -6.09938859E-07                               1_GWF-(1,98)
 Model                             12          4 -1.63217809E-07                                1_GWF-(1,6)
 Model                             13          3 -4.80149751E-08                                1_GWF-(1,6)
 Model                             14          3 -1.41003191E-08                               1_GWF-(1,16)
 Model                             15          2 -2.00007477E-09                               1_GWF-(1,16)
 Model                             16          1 -4.05680822E-10       *                       1_GWF-(1,16)
 Package                           16             1.22164279E-10       *              1_GWF-UZF_0-(16)-rech
 ----------------------------------------------------------------------------------------------------------


 16 CALLS TO NUMERICAL SOLUTION IN TIME STEP 3 STRESS PERIOD 1
 120 TOTAL ITERATIONS

    Solving:  Stress period:     1    Time step:     4


 SLN_1 OUTER ITERATION SUMMARY
 ----------------------------------------------------------------------------------------------------------
                                OUTER      INNER                    STEP   MAXIMUM CHANGE MODEL-(CELLID) OR
 OUTER ITERATION STEP       ITERATION  ITERATION  MAXIMUM CHANGE SUCCESS             MODEL-PACKAGE-(NUMBER)
 ----------------------------------------------------------------------------------------------------------
 Model                              1         12     -0.18325890                               1_GWF-(1,37)
 Model                              2         12     -0.85987820                                1_GWF-(1,6)
 Model                              3         12 -5.08511561E-02                               1_GWF-(1,96)
 Model                              4         10 -5.47393499E-03                               1_GWF-(1,97)
 Model                              5         10 -1.56720686E-03                                1_GWF-(1,7)
 Model                              6          9 -4.07934252E-04                               1_GWF-(1,97)
 Model                              7          9 -1.02047850E-04                                1_GWF-(1,7)
 Model                              8          7 -2.51397638E-05                               1_GWF-(1,97)
 Model                              9          7 -6.18459724E-06                               1_GWF-(1,97)
 Model                             10          5 -1.53229782E-06                               1_GWF-(1,97)
 Model                             11          4 -3.89843219E-07                               1_GWF-(1,85)
 Model                             12          3 -1.14278183E-07                               1_GWF-(1,35)
 Model                             13          3 -3.35766366E-08                                1_GWF-(1,5)
 Model                             14          4 -9.80325510E-09                                1_GWF-(1,5)
 Model                             15          1 -4.04515532E-10       *                        1_GWF-(1,5)
 Package                           15             5.98707084E-10       *               1_GWF-UZF_0-(5)-rech
 ----------------------------------------------------------------------------------------------------------


 15 CALLS TO NUMERICAL SOLUTION IN TIME STEP 4 STRESS PERIOD 1
 108 TOTAL ITERATIONS

    Solving:  Stress period:     1    Time step:     5


 SLN_1 OUTER ITERATION SUMMARY
 ----------------------------------------------------------------------------------------------------------
                                OUTER      INNER                    STEP   MAXIMUM CHANGE MODEL-(CELLID) OR
 OUTER ITERATION STEP       ITERATION  ITERATION  MAXIMUM CHANGE SUCCESS             MODEL-PACKAGE-(NUMBER)
 ----------------------------------------------------------------------------------------------------------
 Model                              1         12     -0.10955286                                1_GWF-(1,6)
 Model                              2         11 -2.41213238E-02                               1_GWF-(1,86)
 Model                              3         10 -5.12329637E-03                               1_GWF-(1,96)
 Model                              4         10 -1.11125514E-03                               1_GWF-(1,56)
 Model                              5          8 -2.43546083E-04                               1_GWF-(1,96)
 Model                              6          8 -5.35548707E-05                                1_GWF-(1,6)
 Model                              7          7 -1.17920054E-05                                1_GWF-(1,6)
 Model                              8          6 -2.59848614E-06                                1_GWF-(1,6)
 Model                              9          6 -5.73144803E-07                               1_GWF-(1,16)
 Model                             10          4 -1.24592209E-07                               1_GWF-(1,96)
 Model                             11          4 -2.84911366E-08                                1_GWF-(1,6)
 Model                             12          4 -6.96904223E-09                               1_GWF-(1,16)
 Model                             13          1 -1.16997967E-10       *                       1_GWF-(5,12)
 Package                           13             4.17659130E-10       *             1_GWF-UZF_0-(130)-rech
 ----------------------------------------------------------------------------------------------------------


 13 CALLS TO NUMERICAL SOLUTION IN TIME STEP 5 STRESS PERIOD 1
 91 TOTAL ITERATIONS

    Solving:  Stress period:     2    Time step:     1

1
                            STRESS PERIOD NO. 2, LENGTH =   10.00000    
                            -----------------------------------------------
                            NUMBER OF TIME STEPS = 5
                            MULTIPLIER FOR DELT =     1.000
                            INITIAL TIME STEP SIZE =   2.000000    

 SLN_1 OUTER ITERATION SUMMARY
 ----------------------------------------------------------------------------------------------------------
                                OUTER      INNER                    STEP   MAXIMUM CHANGE MODEL-(CELLID) OR
 OUTER ITERATION STEP       ITERATION  ITERATION  MAXIMUM CHANGE SUCCESS             MODEL-PACKAGE-(NUMBER)
 ----------------------------------------------------------------------------------------------------------
 Model                              1         12 -8.42613612E-02                               1_GWF-(1,16)
 Model                              2         13     -0.76884561                                1_GWF-(1,5)
 Model                              3         12 -3.77578775E-02                               1_GWF-(1,85)
 Model                              4         10 -2.28791669E-03                               1_GWF-(1,95)
 Model                              5          8 -4.93693848E-04                               1_GWF-(1,95)
 Model                              6          8 -1.11242546E-04                               1_GWF-(1,35)
 Model                              7          8 -2.52737509E-05                                1_GWF-(1,5)
 Model                              8          6 -5.75157602E-06                                1_GWF-(1,5)
 Model                              9          6 -1.30981957E-06                               1_GWF-(1,15)
 Model                             10          4 -2.96030493E-07                               1_GWF-(1,95)
 Model                             11          4 -6.91821853E-08                                1_GWF-(1,5)
 Model                             12          4 -1.57375766E-08                                1_GWF-(1,5)
 Model                             13          1 -8.63568772E-10       *                       1_GWF-(1,25)
 Package                           13             1.06351938E-09                     1_GWF-UZF_0-(200)-rech
 Model                             14          1 -5.80545390E-10       *                       1_GWF-(1,25)
 Package                           14             5.99523764E-11       *             1_GWF-UZF_0-(109)-rech
 ----------------------------------------------------------------------------------------------------------


 14 CALLS TO NUMERICAL SOLUTION IN TIME STEP 1 STRESS PERIOD 2
 97 TOTAL ITERATIONS

    Solving:  Stress period:     2    Time step:     2


 SLN_1 OUTER ITERATION SUMMARY
 ----------------------------------------------------------------------------------------------------------
                                OUTER      INNER                    STEP   MAXIMUM CHANGE MODEL-(CELLID) OR
 OUTER ITERATION STEP       ITERATION  ITERATION  MAXIMUM CHANGE SUCCESS             MODEL-PACKAGE-(NUMBER)
 ----------------------------------------------------------------------------------------------------------
 Model                              1         12 -5.59288338E-02                               1_GWF-(2,51)
 Model                              2         11 -1.16351710E-02                                1_GWF-(1,5)
 Model                              3         11 -2.74342756E-03                               1_GWF-(1,85)
 Model                              4         10 -6.23977418E-04                               1_GWF-(1,55)
 Model                              5          8 -1.41457094E-04                               1_GWF-(1,95)
 Model                              6          8 -3.20785701E-05                               1_GWF-(1,75)
 Model                              7          6 -7.28003982E-06                                1_GWF-(1,5)
 Model                              8          6 -1.65347207E-06                               1_GWF-(1,45)
 Model                              9          6 -3.77692682E-07                               1_GWF-(1,25)
 Model                             10          4 -8.29276665E-08                               1_GWF-(1,95)
 Model                             11          4 -1.94281782E-08                                1_GWF-(1,5)
 Model                             12          5 -5.33323785E-09                               1_GWF-(1,25)
 Model                             13          1 -4.60644856E-11       *                       1_GWF-(5,22)
 Package                           13             3.43981343E-10       *             1_GWF-UZF_0-(108)-rech
 ----------------------------------------------------------------------------------------------------------


 13 CALLS TO NUMERICAL SOLUTION IN TIME STEP 2 STRESS PERIOD 2
 92 TOTAL ITERATIONS

    Solving:  Stress period:     2    Time step:     3


 SLN_1 OUTER ITERATION SUMMARY
 ----------------------------------------------------------------------------------------------------------
                                OUTER      INNER                    STEP   MAXIMUM CHANGE MODEL-(CELLID) OR
 OUTER ITERATION STEP       ITERATION  ITERATION  MAXIMUM CHANGE SUCCESS             MODEL-PACKAGE-(NUMBER)
 ----------------------------------------------------------------------------------------------------------
 Model                              1         12 -4.55798739E-02                               1_GWF-(1,15)
 Model                              2         11 -1.00208497E-02                                1_GWF-(1,5)
 Model                              3         11 -2.19035189E-03                               1_GWF-(1,95)
 Model                              4         11 -4.90673888E-04                               1_GWF-(1,65)
 Model                              5          8 -1.10774203E-04                               1_GWF-(1,95)
 Model                              6          8 -2.50826411E-05                               1_GWF-(1,45)
 Model                              7          6 -5.68873126E-06                                1_GWF-(1,5)
 Model                              8          6 -1.29160729E-06                               1_GWF-(1,55)
 Model                              9          4 -2.91246465E-07                               1_GWF-(1,95)
 Model                             10          4 -6.79744687E-08                                1_GWF-(1,5)
 Model                             11          4 -1.55270676E-08                                1_GWF-(1,5)
 Model                             12          1 -7.83689558E-10       *                       1_GWF-(1,25)
 Package                           12             1.00793413E-09                     1_GWF-UZF_0-(200)-rech
 Model                             13          1 -5.36459765E-10       *                       1_GWF-(1,25)
 Package                           13             5.38068479E-11       *             1_GWF-UZF_0-(108)-rech
 ----------------------------------------------------------------------------------------------------------


 13 CALLS TO NUMERICAL SOLUTION IN TIME STEP 3 STRESS PERIOD 2
 87 TOTAL ITERATIONS

    Solving:  Stress period:     2    Time step:     4


 SLN_1 OUTER ITERATION SUMMARY
 ----------------------------------------------------------------------------------------------------------
                                OUTER      INNER                    STEP   MAXIMUM CHANGE MODEL-(CELLID) OR
 OUTER ITERATION STEP       ITERATION  ITERATION  MAXIMUM CHANGE SUCCESS             MODEL-PACKAGE-(NUMBER)
 ----------------------------------------------------------------------------------------------------------
 Model                              1         12 -3.70218979E-02                               1_GWF-(1,15)
 Model                              2         11 -7.90670287E-03                                1_GWF-(1,5)
 Model                              3         11 -1.71453311E-03                               1_GWF-(1,95)
 Model                              4          8 -3.83056844E-04                               1_GWF-(1,95)
 Model                              5          8 -8.63716330E-05                               1_GWF-(1,55)
 Model                              6          8 -1.95460469E-05                               1_GWF-(1,45)
 Model                              7          6 -4.43171862E-06                                1_GWF-(1,5)
 Model                              8          6 -1.00601195E-06                               1_GWF-(1,15)
 Model                              9          4 -2.26699530E-07                               1_GWF-(1,95)
 Model                             10          5 -5.31364570E-08                                1_GWF-(1,5)
 Model                             11          4 -1.20385657E-08                               1_GWF-(1,35)
 Model                             12          1 -4.09198009E-10       *                        1_GWF-(1,5)
 Package                           12             7.79714460E-10       *             1_GWF-UZF_0-(200)-rech
 ----------------------------------------------------------------------------------------------------------


 12 CALLS TO NUMERICAL SOLUTION IN TIME STEP 4 STRESS PERIOD 2
 84 TOTAL ITERATIONS

    Solving:  Stress period:     2    Time step:     5


 SLN_1 OUTER ITERATION SUMMARY
 ----------------------------------------------------------------------------------------------------------
                                OUTER      INNER                    STEP   MAXIMUM CHANGE MODEL-(CELLID) OR
 OUTER ITERATION STEP       ITERATION  ITERATION  MAXIMUM CHANGE SUCCESS             MODEL-PACKAGE-(NUMBER)
 ----------------------------------------------------------------------------------------------------------
 Model                              1         12 -2.91523012E-02                               1_GWF-(1,15)
 Model                              2         11 -6.16291918E-03                                1_GWF-(1,5)
 Model                              3         12     -0.72423375                               1_GWF-(1,94)
 Model                              4         11 -2.64913955E-02                               1_GWF-(1,84)
 Model                              5         10 -1.53794903E-03                               1_GWF-(1,54)
 Model                              6          8 -3.25443173E-04                               1_GWF-(1,94)
 Model                              7          8 -9.80782441E-05                               1_GWF-(1,53)
 Model                              8          8 -3.30903027E-05                                1_GWF-(1,3)
 Model                              9          6 -1.06399920E-05                                1_GWF-(1,3)
 Model                             10          6 -3.32895375E-06                                1_GWF-(1,3)
 Model                             11          7 -1.02349799E-06                               1_GWF-(1,53)
 Model                             12          6 -3.09975952E-07                               1_GWF-(1,93)
 Model                             13          4 -9.33580466E-08                               1_GWF-(1,83)
 Model                             14          3 -2.83785937E-08                               1_GWF-(1,33)
 Model                             15          4 -8.74898731E-09                                1_GWF-(1,3)
 Model                             16          1 -3.04083869E-10       *                        1_GWF-(1,3)
 Package                           16             5.34320643E-10       *               1_GWF-UZF_0-(3)-rech
 ----------------------------------------------------------------------------------------------------------


 16 CALLS TO NUMERICAL SOLUTION IN TIME STEP 5 STRESS PERIOD 2
 117 TOTAL ITERATIONS

    Solving:  Stress period:     3    Time step:     1

1
                            STRESS PERIOD NO. 3, LENGTH =   10.00000    
                            -----------------------------------------------
                            NUMBER OF TIME STEPS = 5
                            MULTIPLIER FOR DELT =     1.000
                            INITIAL TIME STEP SIZE =   2.000000    

 SLN_1 OUTER ITERATION SUMMARY
 ----------------------------------------------------------------------------------------------------------
                                OUTER      INNER                    STEP   MAXIMUM CHANGE MODEL-(CELLID) OR
 OUTER ITERATION STEP       ITERATION  ITERATION  MAXIMUM CHANGE SUCCESS             MODEL-PACKAGE-(NUMBER)
 ----------------------------------------------------------------------------------------------------------
 Model                              1         12 -2.38833926E-02                               1_GWF-(1,81)
 Model                              2         10 -4.49373166E-03                               1_GWF-(1,11)
 Model                              3         10 -8.89928890E-04                               1_GWF-(1,91)
 Model                              4          9 -2.12461297E-04                               1_GWF-(2,14)
 Model                              5          8 -5.87562218E-05                                1_GWF-(2,4)
 Model                              6          7 -1.54101676E-05                               1_GWF-(2,54)
 Model                              7          8 -3.94043835E-06                               1_GWF-(2,94)
 Model                              8          5 -9.94054545E-07                               1_GWF-(2,94)
 Model                              9          6 -2.49537926E-07                               1_GWF-(2,44)
 Model                             10          4 -6.05794774E-08                               1_GWF-(2,64)
 Model                             11          3 -1.53226090E-08                               1_GWF-(2,44)
 Model                             12          3 -4.43995773E-09                                1_GWF-(2,4)
 Model                             13          1 -2.90359736E-10       *                        1_GWF-(2,4)
 Package                           13             3.00677372E-10       *             1_GWF-UZF_0-(104)-rech
 ----------------------------------------------------------------------------------------------------------


 13 CALLS TO NUMERICAL SOLUTION IN TIME STEP 1 STRESS PERIOD 3
 86 TOTAL ITERATIONS

    Solving:  Stress period:     3    Time step:     2


 SLN_1 OUTER ITERATION SUMMARY
 ----------------------------------------------------------------------------------------------------------
                                OUTER      INNER                    STEP   MAXIMUM CHANGE MODEL-(CELLID) OR
 OUTER ITERATION STEP       ITERATION  ITERATION  MAXIMUM CHANGE SUCCESS             MODEL-PACKAGE-(NUMBER)
 ----------------------------------------------------------------------------------------------------------
 Model                              1         12 -1.52195492E-02                               1_GWF-(1,41)
 Model                              2         10 -3.06091911E-03                                1_GWF-(1,1)
 Model                              3         10 -6.82506761E-04                               1_GWF-(1,94)
 Model                              4          8 -1.57904004E-04                               1_GWF-(1,94)
 Model                              5          8 -3.66561777E-05                               1_GWF-(1,74)
 Model                              6          7 -8.53895822E-06                                1_GWF-(1,4)
 Model                              7          6 -1.99533322E-06                                1_GWF-(1,4)
 Model                              8          6 -4.68614342E-07                               1_GWF-(1,44)
 Model                              9          4 -1.07924951E-07                               1_GWF-(1,94)
 Model                             10          5 -2.60418709E-08                                1_GWF-(1,4)
 Model                             11          4 -6.27306207E-09                               1_GWF-(1,24)
 Model                             12          1 -1.39159795E-10       *                       1_GWF-(5,12)
 Package                           12             3.90107779E-10       *             1_GWF-UZF_0-(117)-rech
 ----------------------------------------------------------------------------------------------------------


 12 CALLS TO NUMERICAL SOLUTION IN TIME STEP 2 STRESS PERIOD 3
 81 TOTAL ITERATIONS

    Solving:  Stress period:     3    Time step:     3


 SLN_1 OUTER ITERATION SUMMARY
 ----------------------------------------------------------------------------------------------------------
                                OUTER      INNER                    STEP   MAXIMUM CHANGE MODEL-(CELLID) OR
 OUTER ITERATION STEP       ITERATION  ITERATION  MAXIMUM CHANGE SUCCESS             MODEL-PACKAGE-(NUMBER)
 ----------------------------------------------------------------------------------------------------------
 Model                              1         10 -1.10066536E-02                                1_GWF-(1,4)
 Model                              2         10 -2.37325832E-03                               1_GWF-(1,94)
 Model                              3          8 -5.33483957E-04                                1_GWF-(1,4)
 Model                              4          8 -1.22358013E-04                               1_GWF-(1,74)
 Model                              5          8 -2.83190470E-05                               1_GWF-(1,74)
 Model                              6          7 -6.59140825E-06                               1_GWF-(1,34)
 Model                              7          6 -1.54017618E-06                                1_GWF-(1,4)
 Model                              8          8 -3.61191642E-07                               1_GWF-(1,14)
 Model                              9          4 -8.37330738E-08                               1_GWF-(1,94)
 Model                             10          4 -1.96400407E-08                                1_GWF-(1,4)
[...]
 SLN_1                                              HNCG             DOUBLE                            100 --                                                                 
 SLN_1                                              LRCH             INTEGER                           300 --                                                                 
 SLN_1                                              WSAVE            DOUBLE                            500 --                                                                 
 SLN_1                                              HCHOLD           DOUBLE                            500 --                                                                 
 SLN_1                                              DEOLD            DOUBLE                            500 --                                                                 
 SLN_1                                              CONVMODSTART     INTEGER                             2 --                                                                 
 TMPSLN_1                                           CONVNMOD         INTEGER                             1 --                                                                 
 TMPSLN_1                                           NITERMAX         INTEGER                             1 --                                                                 
 TMPSLN_1                                           ITINNER          INTEGER                             1 --                                                                 
 TMPSLN_1                                           LOCDV            INTEGER                             1 --                                                                 
 TMPSLN_1                                           DVMAX            DOUBLE                              1 --                                                                 
 TMPSLN_1                                           LOCDR            INTEGER                             1 --                                                                 
 TMPSLN_1                                           DRMAX            DOUBLE                              1 --                                                                 
 TMPSLN_1                                           CONVDVMAX        DOUBLE                              1 --                                                                 
 TMPSLN_1                                           CONVLOCDV        INTEGER                             1 --                                                                 
 TMPSLN_1                                           CONVDRMAX        DOUBLE                              1 --                                                                 
 TMPSLN_1                                           CONVLOCDR        INTEGER                             1 --                                                                 
 DISV_WITH_UZF                                      X                DOUBLE                            500 SLN_1/X                                                            
 DISV_WITH_UZF                                      RHS              DOUBLE                            500 SLN_1/RHS                                                          
 DISV_WITH_UZF                                      IBOUND           INTEGER                           500 SLN_1/IBOUND                                                       
 SLN_1                                              NROW             INTEGER                             1 --                                                                 
 SLN_1                                              NCOL             INTEGER                             1 --                                                                 
 SLN_1                                              NJA              INTEGER                             1 --                                                                 
 SLN_1                                              IA               INTEGER                           501 --                                                                 
 SLN_1                                              JA               INTEGER                          3100 --                                                                 
 SLN_1                                              AMAT             DOUBLE                           3100 --                                                                 
 DISV_WITH_UZF/IC                                   STRT             DOUBLE                            500 --                                                                 
 DISV_WITH_UZF/STO                                  ICONVERT         INTEGER                           500 --                                                                 
 DISV_WITH_UZF/STO                                  SS               DOUBLE                            500 --                                                                 
 DISV_WITH_UZF/STO                                  SY               DOUBLE                            500 --                                                                 
 DISV_WITH_UZF/STO                                  STRGSS           DOUBLE                            500 --                                                                 
 DISV_WITH_UZF/STO                                  STRGSY           DOUBLE                            500 --                                                                 
 DISV_WITH_UZF/GHB_0                                NODELIST         INTEGER                            20 --                                                                 
 DISV_WITH_UZF/GHB_0                                NOUPDATEAUXVAR   INTEGER                             0 --                                                                 
 DISV_WITH_UZF/GHB_0                                BOUND            DOUBLE                             40 --                                                                 
 DISV_WITH_UZF/GHB_0                                CONDINPUT        DOUBLE                              0 --                                                                 
 DISV_WITH_UZF/GHB_0                                HCOF             DOUBLE                             20 --                                                                 
 DISV_WITH_UZF/GHB_0                                RHS              DOUBLE                             20 --                                                                 
 DISV_WITH_UZF/GHB_0                                SIMVALS          DOUBLE                             20 --                                                                 
 DISV_WITH_UZF/GHB_0                                SIMTOMVR         DOUBLE                              0 --                                                                 
 DISV_WITH_UZF/GHB_0                                AUXVAR           DOUBLE                              0 --                                                                 
 DISV_WITH_UZF/GHB_0                                BOUNDNAME        STRING LEN=40                       0 --                                                                 
 DISV_WITH_UZF/GHB_0                                BOUNDNAME_CST    STRING LEN=40                       0 --                                                                 
 DISV_WITH_UZF/GHB_0                                CELLID           INTEGER                            40 __INPUT__/DISV_WITH_UZF/GHB_0/CELLID                               
 DISV_WITH_UZF/GHB_0                                BOUNDNAME_IDM    STRING LEN=40                       0 __INPUT__/DISV_WITH_UZF/GHB_0/BOUNDNAME                            
 DISV_WITH_UZF/GHB_0                                AUXVAR_IDM       DOUBLE                              0 __INPUT__/DISV_WITH_UZF/GHB_0/AUXVAR                               
 DISV_WITH_UZF/GHB_0                                BHEAD            DOUBLE                             20 __INPUT__/DISV_WITH_UZF/GHB_0/BHEAD                                
 DISV_WITH_UZF/GHB_0                                COND             DOUBLE                             20 __INPUT__/DISV_WITH_UZF/GHB_0/COND                                 
 DISV_WITH_UZF/UZF_0                                NODELIST         INTEGER                           500 --                                                                 
 DISV_WITH_UZF/UZF_0                                NOUPDATEAUXVAR   INTEGER                             0 --                                                                 
 DISV_WITH_UZF/UZF_0                                BOUND            DOUBLE                            500 --                                                                 
 DISV_WITH_UZF/UZF_0                                CONDINPUT        DOUBLE                              0 --                                                                 
 DISV_WITH_UZF/UZF_0                                HCOF             DOUBLE                            500 --                                                                 
 DISV_WITH_UZF/UZF_0                                RHS              DOUBLE                            500 --                                                                 
 DISV_WITH_UZF/UZF_0                                SIMVALS          DOUBLE                            500 --                                                                 
 DISV_WITH_UZF/UZF_0                                SIMTOMVR         DOUBLE                              0 --                                                                 
 DISV_WITH_UZF/UZF_0                                AUXVAR           DOUBLE                              0 --                                                                 
 DISV_WITH_UZF/UZF_0                                BOUNDNAME        STRING LEN=40                     500 --                                                                 
 DISV_WITH_UZF/UZF_0                                BOUNDNAME_CST    STRING LEN=40                     500 --                                                                 
 SLN_1/IMSLINEAR                                    DVCLOSE          DOUBLE                              1 --                                                                 
 SLN_1/IMSLINEAR                                    RCLOSE           DOUBLE                              1 --                                                                 
 SLN_1/IMSLINEAR                                    ICNVGOPT         INTEGER                             1 --                                                                 
 SLN_1/IMSLINEAR                                    ITER1            INTEGER                             1 --                                                                 
 SLN_1/IMSLINEAR                                    ILINMETH         INTEGER                             1 --                                                                 
 SLN_1/IMSLINEAR                                    ISCL             INTEGER                             1 --                                                                 
 SLN_1/IMSLINEAR                                    IORD             INTEGER                             1 --                                                                 
 SLN_1/IMSLINEAR                                    NORTH            INTEGER                             1 --                                                                 
 SLN_1/IMSLINEAR                                    RELAX            DOUBLE                              1 --                                                                 
 SLN_1/IMSLINEAR                                    LEVEL            INTEGER                             1 --                                                                 
 SLN_1/IMSLINEAR                                    DROPTOL          DOUBLE                              1 --                                                                 
 SLN_1/IMSLINEAR                                    IDFPARAM         INTEGER                             1 --                                                                 
 SLN_1/IMSLINEAR                                    NJA              INTEGER                             1 --                                                                 
 SLN_1/IMSLINEAR                                    IOUT             INTEGER                             1 --                                                                 
 SLN_1/IMSLINEAR                                    IPC              INTEGER                             1 --                                                                 
 SLN_1/IMSLINEAR                                    IACPC            INTEGER                             1 --                                                                 
 SLN_1/IMSLINEAR                                    NITERC           INTEGER                             1 --                                                                 
 SLN_1/IMSLINEAR                                    NIABCGS          INTEGER                             1 --                                                                 
 SLN_1/IMSLINEAR                                    NIAPC            INTEGER                             1 --                                                                 
 SLN_1/IMSLINEAR                                    NJAPC            INTEGER                             1 --                                                                 
 SLN_1/IMSLINEAR                                    EPFACT           DOUBLE                              1 --                                                                 
 SLN_1/IMSLINEAR                                    L2NORM0          DOUBLE                              1 --                                                                 
 SLN_1/IMSLINEAR                                    NJLU             INTEGER                             1 --                                                                 
 SLN_1/IMSLINEAR                                    NJW              INTEGER                             1 --                                                                 
 SLN_1/IMSLINEAR                                    NWLU             INTEGER                             1 --                                                                 
 SLN_1/IMSLINEAR                                    DSCALE           DOUBLE                              1 --                                                                 
 SLN_1/IMSLINEAR                                    DSCALE2          DOUBLE                              1 --                                                                 
 SLN_1/IMSLINEAR                                    IAPC             INTEGER                           501 --                                                                 
 SLN_1/IMSLINEAR                                    JAPC             INTEGER                          3100 --                                                                 
 SLN_1/IMSLINEAR                                    APC              DOUBLE                           3100 --                                                                 
 SLN_1/IMSLINEAR                                    IW               INTEGER                           500 --                                                                 
 SLN_1/IMSLINEAR                                    W                DOUBLE                            500 --                                                                 
 SLN_1/IMSLINEAR                                    JLU              INTEGER                             1 --                                                                 
 SLN_1/IMSLINEAR                                    JW               INTEGER                             1 --                                                                 
 SLN_1/IMSLINEAR                                    WLU              DOUBLE                              1 --                                                                 
 SLN_1/IMSLINEAR                                    LORDER           INTEGER                             1 --                                                                 
 SLN_1/IMSLINEAR                                    IORDER           INTEGER                             1 --                                                                 
 SLN_1/IMSLINEAR                                    IARO             INTEGER                             2 --                                                                 
 SLN_1/IMSLINEAR                                    JARO             INTEGER                             1 --                                                                 
 SLN_1/IMSLINEAR                                    ARO              DOUBLE                              1 --                                                                 
 SLN_1/IMSLINEAR                                    ID               INTEGER                           500 --                                                                 
 SLN_1/IMSLINEAR                                    D                DOUBLE                            500 --                                                                 
 SLN_1/IMSLINEAR                                    P                DOUBLE                            500 --                                                                 
 SLN_1/IMSLINEAR                                    Q                DOUBLE                            500 --                                                                 
 SLN_1/IMSLINEAR                                    Z                DOUBLE                            500 --                                                                 
 SLN_1/IMSLINEAR                                    T                DOUBLE                            500 --                                                                 
 SLN_1/IMSLINEAR                                    V                DOUBLE                            500 --                                                                 
 SLN_1/IMSLINEAR                                    DHAT             DOUBLE                            500 --                                                                 
 SLN_1/IMSLINEAR                                    PHAT             DOUBLE                            500 --                                                                 
 SLN_1/IMSLINEAR                                    QHAT             DOUBLE                            500 --                                                                 
 -----------------------------------------------------------------------------------------------------------------------------------------------------------------------------



 MEMORY MANAGER TOTAL STORAGE BY DATA TYPE, IN MEGABYTES
 -------------------------------
                    ALLOCATED   
 DATA TYPE           MEMORY     
 -------------------------------
 Character        7.47800000E-03
 Logical          4.00000000E-05
 Integer          0.13222800    
 Real             10.117152     
 -------------------------------
 Total            10.256898     
 Virtual          0.0000000     
 -------------------------------



 Run end date and time (yyyy/mm/dd hh:mm:ss): 2023/10/30  9:06:43
 Elapsed run time:  1.037 Seconds
 Normal termination of simulation.
