 LISTING FILE: p5.LST
                         UNIT   6

 OPENING p5.BAS
 FILE TYPE:BAS   UNIT   1

 OPENING p5.BCF
 FILE TYPE:BCF   UNIT  11

 OPENING p5.WEL
 FILE TYPE:WEL   UNIT  12

 OPENING p5.SIP
 FILE TYPE:SIP   UNIT  19

 OPENING p5.OC
 FILE TYPE:OC   UNIT  22

 OPENING p5.FTL
 FILE TYPE:LMT   UNIT  32
1                                 MODFLOW
      U.S. GEOLOGICAL SURVEY MODULAR FINITE-DIFFERENCE GROUND-WATER FLOW MODEL

 MT3DMS Benchmark Test Problem #5                                                
 2D TRANSPORT IN A RADIAL FLOW FIELD                                             
    1 LAYERS        31 ROWS        31 COLUMNS
   1 STRESS PERIOD(S) IN SIMULATION
 MODEL TIME UNIT IS DAYS

 BAS5 -- BASIC MODEL PACKAGE, VERSION 5, 1/1/95 INPUT READ FROM UNIT  1
 ARRAYS RHS AND BUFF WILL SHARE MEMORY
 INITIAL HEAD WILL NOT BE KEPT THROUGHOUT THE SIMULATION, WHICH MEANS
 DRAWDOWN CANNOT BE CALCULATED
       7754 ELEMENTS IN X ARRAY ARE USED BY BAS
       7754 ELEMENTS OF X ARRAY USED OUT OF  999999999

 BCF5 -- BLOCK-CENTERED FLOW PACKAGE, VERSION 5, 9/1/93 INPUT READ FROM UNIT 11
 STEADY-STATE SIMULATION
 HEAD AT CELLS THAT CONVERT TO DRY=  0.10000E+31
 WETTING CAPABILITY IS NOT ACTIVE
      LAYER  LAYER-TYPE CODE     INTERBLOCK T
      --------------------------------------------
         1            0          0 -- HARMONIC    
          1 ELEMENTS IN X ARRAY ARE USED BY BCF
       7755 ELEMENTS OF X ARRAY USED OUT OF  999999999

 WEL5 -- WELL PACKAGE, VERSION 5, 9/1/93 INPUT READ FROM UNIT 12
 MAXIMUM OF    1 WELLS
          4 ELEMENTS IN X ARRAY ARE USED BY WEL
       7759 ELEMENTS OF X ARRAY USED OUT OF  999999999

 SIP5 -- STRONGLY IMPLICIT PROCEDURE SOLUTION PACKAGE
                    VERSION 5, 9/1/93 INPUT READ FROM UNIT 19
 MAXIMUM OF  50 ITERATIONS ALLOWED FOR CLOSURE
  5 ITERATION PARAMETERS
       4049 ELEMENTS IN X ARRAY ARE USED BY SIP
      11808 ELEMENTS OF X ARRAY USED OUT OF  999999999
1
 MT3DMS Benchmark Test Problem #5                                                
 2D TRANSPORT IN A RADIAL FLOW FIELD                                             



                     BOUNDARY ARRAY FOR LAYER   1
 READING ON UNIT   1 WITH FORMAT: (31I2)              

 AQUIFER HEAD WILL BE SET TO  999.99     AT ALL NO-FLOW NODES (IBOUND=0).



                       INITIAL HEAD FOR LAYER   1
 READING ON UNIT   1 WITH FORMAT: (5x,10f16.0)        

            1           2           3           4           5           6           7           8           9          10
           11          12          13          14          15          16          17          18          19          20
           21          22          23          24          25          26          27          28          29          30
           31
 ........................................................................................................................
   1    14.74       15.27       15.80       16.32       16.83       17.33       17.81       18.26       18.69       19.07    
        19.41       19.71       19.94       20.11       20.22       20.25       20.22       20.11       19.94       19.71    
        19.41       19.07       18.69       18.26       17.81       17.33       16.83       16.32       15.80       15.27    
        14.74    
   2    15.27       15.84       16.40       16.97       17.53       18.07       18.60       19.10       19.58       20.01    
        20.40       20.73       20.99       21.19       21.31       21.35       21.31       21.19       20.99       20.73    
        20.40       20.01       19.58       19.10       18.60       18.07       17.53       16.97       16.40       15.84    
        15.27    
   3    15.80       16.40       17.01       17.63       18.23       18.83       19.41       19.98       20.50       20.99    
        21.43       21.81       22.12       22.34       22.48       22.53       22.48       22.34       22.12       21.81    
        21.43       20.99       20.50       19.98       19.41       18.83       18.23       17.63       17.01       16.40    
        15.80    
   4    16.32       16.97       17.63       18.29       18.95       19.61       20.25       20.88       21.47       22.03    
        22.53       22.97       23.32       23.59       23.75       23.80       23.75       23.59       23.32       22.97    
        22.53       22.03       21.47       20.88       20.25       19.61       18.95       18.29       17.63       16.97    
        16.32    
   5    16.83       17.53       18.23       18.95       19.67       20.40       21.11       21.81       22.48       23.12    
        23.70       24.20       24.62       24.93       25.12       25.19       25.12       24.93       24.62       24.20    
        23.70       23.12       22.48       21.81       21.11       20.40       19.67       18.95       18.23       17.53    
        16.83    
   6    17.33       18.07       18.83       19.61       20.40       21.19       21.98       22.77       23.53       24.26    
        24.93       25.53       26.02       26.39       26.63       26.71       26.63       26.39       26.02       25.53    
        24.93       24.26       23.53       22.77       21.98       21.19       20.40       19.61       18.83       18.07    
        17.33    
   7    17.81       18.60       19.41       20.25       21.11       21.98       22.87       23.75       24.62       25.46    
        26.24       26.95       27.54       28.00       28.29       28.38       28.29       28.00       27.54       26.95    
        26.24       25.46       24.62       23.75       22.87       21.98       21.11       20.25       19.41       18.60    
        17.81    
   8    18.26       19.10       19.98       20.88       21.81       22.77       23.75       24.74       25.73       26.71    
        27.63       28.48       29.21       29.78       30.13       30.26       30.13       29.78       29.21       28.48    
        27.63       26.71       25.73       24.74       23.75       22.77       21.81       20.88       19.98       19.10    
        18.26    
   9    18.69       19.58       20.50       21.47       22.48       23.53       24.62       25.73       26.87       28.00    
        29.10       30.13       31.04       31.76       32.22       32.38       32.22       31.76       31.04       30.13    
        29.10       28.00       26.87       25.73       24.62       23.53       22.48       21.47       20.50       19.58    
        18.69    
  10    19.07       20.01       20.99       22.03       23.12       24.26       25.46       26.71       28.00       29.32    
        30.64       31.91       33.06       34.00       34.62       34.84       34.62       34.00       33.06       31.91    
        30.64       29.32       28.00       26.71       25.46       24.26       23.12       22.03       20.99       20.01    
        19.07    
  11    19.41       20.40       21.43       22.53       23.70       24.93       26.24       27.63       29.10       30.64    
        32.22       33.80       35.29       36.56       37.43       37.74       37.43       36.56       35.29       33.80    
        32.22       30.64       29.10       27.63       26.24       24.93       23.70       22.53       21.43       20.40    
        19.41    
  12    19.71       20.73       21.81       22.97       24.20       25.53       26.95       28.48       30.13       31.91    
        33.80       35.77       37.74       39.51       40.81       41.29       40.81       39.51       37.74       35.77    
        33.80       31.91       30.13       28.48       26.95       25.53       24.20       22.97       21.81       20.73    
        19.71    
  13    19.94       20.99       22.12       23.32       24.62       26.02       27.54       29.21       31.04       33.06    
        35.29       37.74       40.35       42.94       45.03       45.87       45.03       42.94       40.35       37.74    
        35.29       33.06       31.04       29.21       27.54       26.02       24.62       23.32       22.12       20.99    
        19.94    
  14    20.11       21.19       22.34       23.59       24.93       26.39       28.00       29.78       31.76       34.00    
        36.56       39.51       42.94       46.81       50.55       52.32       50.55       46.81       42.94       39.51    
        36.56       34.00       31.76       29.78       28.00       26.39       24.93       23.59       22.34       21.19    
        20.11    
  15    20.22       21.31       22.48       23.75       25.12       26.63       28.29       30.13       32.22       34.62    
        37.43       40.81       45.03       50.55       57.84       63.35       57.84       50.55       45.03       40.81    
        37.43       34.62       32.22       30.13       28.29       26.63       25.12       23.75       22.48       21.31    
        20.22    
  16    20.25       21.35       22.53       23.80       25.19       26.71       28.38       30.26       32.38       34.84    
        37.74       41.29       45.87       52.32       63.35       100.0       63.35       52.32       45.87       41.29    
        37.74       34.84       32.38       30.26       28.38       26.71       25.19       23.80       22.53       21.35    
        20.25    
  17    20.22       21.31       22.48       23.75       25.12       26.63       28.29       30.13       32.22       34.62    
        37.43       40.81       45.03       50.55       57.84       63.35       57.84       50.55       45.03       40.81    
        37.43       34.62       32.22       30.13       28.29       26.63       25.12       23.75       22.48       21.31    
        20.22    
  18    20.11       21.19       22.34       23.59       24.93       26.39       28.00       29.78       31.76       34.00    
        36.56       39.51       42.94       46.81       50.55       52.32       50.55       46.81       42.94       39.51    
        36.56       34.00       31.76       29.78       28.00       26.39       24.93       23.59       22.34       21.19    
        20.11    
  19    19.94       20.99       22.12       23.32       24.62       26.02       27.54       29.21       31.04       33.06    
        35.29       37.74       40.35       42.94       45.03       45.87       45.03       42.94       40.35       37.74    
        35.29       33.06       31.04       29.21       27.54       26.02       24.62       23.32       22.12       20.99    
        19.94    
  20    19.71       20.73       21.81       22.97       24.20       25.53       26.95       28.48       30.13       31.91    
        33.80       35.77       37.74       39.51       40.81       41.29       40.81       39.51       37.74       35.77    
        33.80       31.91       30.13       28.48       26.95       25.53       24.20       22.97       21.81       20.73    
        19.71    
  21    19.41       20.40       21.43       22.53       23.70       24.93       26.24       27.63       29.10       30.64    
        32.22       33.80       35.29       36.56       37.43       37.74       37.43       36.56       35.29       33.80    
        32.22       30.64       29.10       27.63       26.24       24.93       23.70       22.53       21.43       20.40    
        19.41    
  22    19.07       20.01       20.99       22.03       23.12       24.26       25.46       26.71       28.00       29.32    
        30.64       31.91       33.06       34.00       34.62       34.84       34.62       34.00       33.06       31.91    
        30.64       29.32       28.00       26.71       25.46       24.26       23.12       22.03       20.99       20.01    
        19.07    
  23    18.69       19.58       20.50       21.47       22.48       23.53       24.62       25.73       26.87       28.00    
        29.10       30.13       31.04       31.76       32.22       32.38       32.22       31.76       31.04       30.13    
        29.10       28.00       26.87       25.73       24.62       23.53       22.48       21.47       20.50       19.58    
        18.69    
  24    18.26       19.10       19.98       20.88       21.81       22.77       23.75       24.74       25.73       26.71    
        27.63       28.48       29.21       29.78       30.13       30.26       30.13       29.78       29.21       28.48    
        27.63       26.71       25.73       24.74       23.75       22.77       21.81       20.88       19.98       19.10    
        18.26    
  25    17.81       18.60       19.41       20.25       21.11       21.98       22.87       23.75       24.62       25.46    
        26.24       26.95       27.54       28.00       28.29       28.38       28.29       28.00       27.54       26.95    
        26.24       25.46       24.62       23.75       22.87       21.98       21.11       20.25       19.41       18.60    
        17.81    
  26    17.33       18.07       18.83       19.61       20.40       21.19       21.98       22.77       23.53       24.26    
        24.93       25.53       26.02       26.39       26.63       26.71       26.63       26.39       26.02       25.53    
        24.93       24.26       23.53       22.77       21.98       21.19       20.40       19.61       18.83       18.07    
        17.33    
  27    16.83       17.53       18.23       18.95       19.67       20.40       21.11       21.81       22.48       23.12    
        23.70       24.20       24.62       24.93       25.12       25.19       25.12       24.93       24.62       24.20    
        23.70       23.12       22.48       21.81       21.11       20.40       19.67       18.95       18.23       17.53    
        16.83    
  28    16.32       16.97       17.63       18.29       18.95       19.61       20.25       20.88       21.47       22.03    
        22.53       22.97       23.32       23.59       23.75       23.80       23.75       23.59       23.32       22.97    
        22.53       22.03       21.47       20.88       20.25       19.61       18.95       18.29       17.63       16.97    
        16.32    
  29    15.80       16.40       17.01       17.63       18.23       18.83       19.41       19.98       20.50       20.99    
        21.43       21.81       22.12       22.34       22.48       22.53       22.48       22.34       22.12       21.81    
        21.43       20.99       20.50       19.98       19.41       18.83       18.23       17.63       17.01       16.40    
        15.80    
  30    15.27       15.84       16.40       16.97       17.53       18.07       18.60       19.10       19.58       20.01    
        20.40       20.73       20.99       21.19       21.31       21.35       21.31       21.19       20.99       20.73    
        20.40       20.01       19.58       19.10       18.60       18.07       17.53       16.97       16.40       15.84    
        15.27    
  31    14.74       15.27       15.80       16.32       16.83       17.33       17.81       18.26       18.69       19.07    
        19.41       19.71       19.94       20.11       20.22       20.25       20.22       20.11       19.94       19.71    
        19.41       19.07       18.69       18.26       17.81       17.33       16.83       16.32       15.80       15.27    
        14.74    

 OUTPUT CONTROL IS SPECIFIED EVERY TIME STEP
 HEAD PRINT FORMAT CODE IS   4    DRAWDOWN PRINT FORMAT CODE IS   4
 HEADS WILL BE SAVED ON UNIT   0    DRAWDOWNS WILL BE SAVED ON UNIT   0

 COLUMN TO ROW ANISOTROPY =   1.000000    

                     DELR =   10.00000    

                     DELC =   10.00000    

     TRANSMIS. ALONG ROWS =   1.000000     FOR LAYER   1



          SOLUTION BY THE STRONGLY IMPLICIT PROCEDURE
          -------------------------------------------
 MAXIMUM ITERATIONS ALLOWED FOR CLOSURE =       50
                 ACCELERATION PARAMETER =     1.0000    
      HEAD CHANGE CRITERION FOR CLOSURE =    0.10000E-03
      SIP HEAD CHANGE PRINTOUT INTERVAL =        1

     5 ITERATION PARAMETERS CALCULATED FROM SPECIFIED WSEED = 0.00100000 :

  0.000000E+00 0.822172E+00 0.968377E+00 0.994377E+00 0.999000E+00
1
                            STRESS PERIOD NO.   1, LENGTH =   1.000000    
                            ----------------------------------------------

                              NUMBER OF TIME STEPS =     1

                               MULTIPLIER FOR DELT =     1.000

                            INITIAL TIME STEP SIZE =   1.000000    


     1 WELLS

 LAYER   ROW   COL   STRESS RATE   WELL NO.
 ------------------------------------------
    1     16    16     100.00          1

    21 ITERATIONS FOR TIME STEP   1 IN STRESS PERIOD  1

 MAXIMUM HEAD CHANGE FOR EACH ITERATION:

    HEAD CHANGE   HEAD CHANGE   HEAD CHANGE   HEAD CHANGE   HEAD CHANGE
  LAYER,ROW,COL LAYER,ROW,COL LAYER,ROW,COL LAYER,ROW,COL LAYER,ROW,COL
 ----------------------------------------------------------------------
     -10.65       -0.9398       -0.1827       -0.7955E-01    0.9220E-01
  (  1, 16, 16) (  1, 17, 15) (  1, 14, 16) (  1, 15, 20) (  1, 18, 18)
    -0.3448E-01   -0.3340E-01    0.8010E-02   -0.1167E-01    0.5522E-02
  (  1, 16, 16) (  1, 17, 17) (  1, 11, 22) (  1, 19, 17) (  1, 21, 22)
    -0.1465E-02    0.1457E-02    0.2447E-02    0.1228E-02    0.1227E-02
  (  1, 16, 26) (  1, 18, 19) (  1, 16, 16) (  1, 11, 21) (  1, 13, 24)
    -0.2845E-03   -0.4246E-03    0.2064E-03    0.4982E-03   -0.1817E-03
  (  1, 11, 22) (  1, 11, 22) (  1, 20, 20) (  1, 16, 16) (  1, 19, 19)
    -0.4742E-04
  (  1, 16, 16)


 HEAD/DRAWDOWN PRINTOUT FLAG = 1     TOTAL BUDGET PRINTOUT FLAG = 0
 CELL-BY-CELL FLOW TERM FLAG = 1

 OUTPUT FLAGS FOR ALL LAYERS ARE THE SAME:
   HEAD    DRAWDOWN  HEAD  DRAWDOWN
 PRINTOUT  PRINTOUT  SAVE    SAVE
 ----------------------------------
     1         0       1       0

 SATURATED THICKNESS AND FLOW TERMS SAVED ON UNIT 32 FOR MT3D BY LINKMT3D PACKAGE 5.0
1
              HEAD IN LAYER  1 AT END OF TIME STEP  1 IN STRESS PERIOD  1
  -----------------------------------------------------------------------

           1       2       3       4       5       6       7       8       9      10      11      12      13      14      15
          16      17      18      19      20      21      22      23      24      25      26      27      28      29      30
          31
 ...........................................................................................................................
   1    14.74   15.27   15.80   16.32   16.83   17.33   17.81   18.26   18.69   19.07   19.41   19.71   19.94   20.11   20.22
        20.25   20.22   20.11   19.94   19.71   19.41   19.07   18.69   18.26   17.81   17.33   16.83   16.32   15.80   15.27
        14.74
   2    15.27   15.84   16.40   16.97   17.52   18.07   18.60   19.10   19.57   20.01   20.40   20.73   21.00   21.19   21.31
        21.35   21.31   21.19   21.00   20.73   20.40   20.01   19.57   19.10   18.60   18.07   17.52   16.97   16.40   15.84
        15.27
   3    15.80   16.40   17.01   17.62   18.23   18.83   19.41   19.97   20.50   20.99   21.43   21.81   22.12   22.35   22.49
        22.54   22.49   22.35   22.12   21.81   21.43   20.99   20.50   19.97   19.41   18.83   18.23   17.62   17.01   16.40
        15.80
   4    16.32   16.97   17.62   18.29   18.95   19.60   20.25   20.87   21.47   22.03   22.53   22.97   23.32   23.59   23.76
        23.81   23.76   23.59   23.32   22.97   22.53   22.03   21.47   20.87   20.25   19.60   18.95   18.29   17.62   16.97
        16.32
   5    16.83   17.52   18.23   18.95   19.67   20.39   21.11   21.81   22.48   23.11   23.69   24.20   24.62   24.94   25.13
        25.20   25.13   24.94   24.62   24.20   23.69   23.11   22.48   21.81   21.11   20.39   19.67   18.95   18.23   17.52
        16.83
   6    17.33   18.07   18.83   19.60   20.39   21.18   21.98   22.76   23.53   24.25   24.93   25.52   26.02   26.40   26.64
        26.72   26.64   26.40   26.02   25.52   24.93   24.25   23.53   22.76   21.98   21.18   20.39   19.60   18.83   18.07
        17.33
   7    17.81   18.60   19.41   20.25   21.11   21.98   22.86   23.74   24.61   25.45   26.24   26.95   27.55   28.01   28.30
        28.40   28.30   28.01   27.55   26.95   26.24   25.45   24.61   23.74   22.86   21.98   21.11   20.25   19.41   18.60
        17.81
   8    18.26   19.10   19.97   20.87   21.81   22.76   23.74   24.73   25.72   26.69   27.62   28.48   29.21   29.78   30.15
        30.28   30.15   29.78   29.21   28.48   27.62   26.69   25.72   24.73   23.74   22.76   21.81   20.87   19.97   19.10
        18.26
   9    18.69   19.57   20.50   21.47   22.48   23.53   24.61   25.72   26.85   27.98   29.09   30.12   31.04   31.77   32.24
        32.41   32.24   31.77   31.04   30.12   29.09   27.98   26.85   25.72   24.61   23.53   22.48   21.47   20.50   19.57
        18.69
  10    19.07   20.01   20.99   22.03   23.11   24.25   25.45   26.69   27.98   29.30   30.62   31.89   33.05   34.01   34.65
        34.87   34.65   34.00   33.05   31.89   30.62   29.30   27.98   26.69   25.45   24.25   23.11   22.03   20.99   20.01
        19.07
  11    19.41   20.40   21.43   22.53   23.69   24.93   26.24   27.62   29.09   30.62   32.19   33.77   35.27   36.56   37.46
        37.80   37.46   36.56   35.27   33.77   32.19   30.62   29.09   27.62   26.24   24.93   23.69   22.53   21.43   20.40
        19.41
  12    19.71   20.73   21.81   22.97   24.20   25.52   26.95   28.48   30.12   31.89   33.77   35.73   37.69   39.49   40.85
        41.39   40.85   39.49   37.69   35.73   33.77   31.89   30.12   28.48   26.95   25.52   24.20   22.97   21.81   20.73
        19.71
  13    19.94   21.00   22.12   23.32   24.62   26.02   27.55   29.21   31.04   33.05   35.27   37.69   40.28   42.87   45.05
        46.06   45.05   42.87   40.28   37.69   35.27   33.05   31.04   29.21   27.55   26.02   24.62   23.32   22.12   21.00
        19.94
  14    20.11   21.19   22.35   23.59   24.94   26.40   28.01   29.78   31.77   34.01   36.56   39.49   42.87   46.64   50.42
        52.75   50.42   46.64   42.87   39.49   36.56   34.00   31.77   29.78   28.01   26.40   24.94   23.59   22.35   21.19
        20.11
  15    20.22   21.31   22.49   23.76   25.13   26.64   28.30   30.15   32.24   34.65   37.46   40.85   45.05   50.42   57.26
        64.09   57.26   50.42   45.05   40.85   37.46   34.65   32.24   30.15   28.30   26.64   25.13   23.76   22.49   21.31
        20.22
  16    20.25   21.35   22.54   23.81   25.20   26.72   28.40   30.28   32.41   34.87   37.80   41.39   46.06   52.75   64.09
        89.09   64.09   52.75   46.06   41.39   37.80   34.87   32.41   30.28   28.40   26.72   25.20   23.81   22.54   21.35
        20.25
  17    20.22   21.31   22.49   23.76   25.13   26.64   28.30   30.15   32.24   34.65   37.46   40.85   45.05   50.42   57.26
        64.09   57.26   50.42   45.05   40.85   37.46   34.65   32.24   30.15   28.30   26.64   25.13   23.76   22.49   21.31
        20.22
  18    20.11   21.19   22.35   23.59   24.94   26.40   28.01   29.78   31.77   34.00   36.56   39.49   42.87   46.64   50.42
        52.75   50.42   46.64   42.87   39.49   36.56   34.00   31.77   29.78   28.01   26.40   24.94   23.59   22.35   21.19
        20.11
  19    19.94   21.00   22.12   23.32   24.62   26.02   27.55   29.21   31.04   33.05   35.27   37.69   40.28   42.87   45.05
        46.06   45.05   42.87   40.28   37.69   35.27   33.05   31.04   29.21   27.55   26.02   24.62   23.32   22.12   21.00
        19.94
  20    19.71   20.73   21.81   22.97   24.20   25.52   26.95   28.48   30.12   31.89   33.77   35.73   37.69   39.49   40.85
        41.39   40.85   39.49   37.69   35.73   33.77   31.89   30.12   28.48   26.95   25.52   24.20   22.97   21.81   20.73
        19.71
  21    19.41   20.40   21.43   22.53   23.69   24.93   26.24   27.62   29.09   30.62   32.19   33.77   35.27   36.56   37.46
        37.80   37.46   36.56   35.27   33.77   32.19   30.62   29.09   27.62   26.24   24.93   23.69   22.53   21.43   20.40
        19.41
  22    19.07   20.01   20.99   22.03   23.11   24.25   25.45   26.69   27.98   29.30   30.62   31.89   33.05   34.00   34.65
        34.87   34.65   34.01   33.05   31.89   30.62   29.30   27.98   26.69   25.45   24.25   23.11   22.03   20.99   20.01
        19.07
  23    18.69   19.57   20.50   21.47   22.48   23.53   24.61   25.72   26.85   27.98   29.09   30.12   31.04   31.77   32.24
        32.41   32.24   31.77   31.04   30.12   29.09   27.98   26.85   25.72   24.61   23.53   22.48   21.47   20.50   19.57
        18.69
  24    18.26   19.10   19.97   20.87   21.81   22.76   23.74   24.73   25.72   26.69   27.62   28.48   29.21   29.78   30.15
        30.28   30.15   29.78   29.21   28.48   27.62   26.69   25.72   24.73   23.74   22.76   21.81   20.87   19.97   19.10
        18.26
  25    17.81   18.60   19.41   20.25   21.11   21.98   22.86   23.74   24.61   25.45   26.24   26.95   27.55   28.01   28.30
        28.40   28.30   28.01   27.55   26.95   26.24   25.45   24.61   23.74   22.86   21.98   21.11   20.25   19.41   18.60
        17.81
  26    17.33   18.07   18.83   19.60   20.39   21.18   21.98   22.76   23.53   24.25   24.93   25.52   26.02   26.40   26.64
        26.72   26.64   26.40   26.02   25.52   24.93   24.25   23.53   22.76   21.98   21.18   20.39   19.60   18.83   18.07
        17.33
  27    16.83   17.52   18.23   18.95   19.67   20.39   21.11   21.81   22.48   23.11   23.69   24.20   24.62   24.94   25.13
        25.20   25.13   24.94   24.62   24.20   23.69   23.11   22.48   21.81   21.11   20.39   19.67   18.95   18.23   17.52
        16.83
  28    16.32   16.97   17.62   18.29   18.95   19.60   20.25   20.87   21.47   22.03   22.53   22.97   23.32   23.59   23.76
        23.81   23.76   23.59   23.32   22.97   22.53   22.03   21.47   20.87   20.25   19.60   18.95   18.29   17.62   16.97
        16.32
  29    15.80   16.40   17.01   17.62   18.23   18.83   19.41   19.97   20.50   20.99   21.43   21.81   22.12   22.35   22.49
        22.54   22.49   22.35   22.12   21.81   21.43   20.99   20.50   19.97   19.41   18.83   18.23   17.62   17.01   16.40
        15.80
  30    15.27   15.84   16.40   16.97   17.52   18.07   18.60   19.10   19.57   20.01   20.40   20.73   21.00   21.19   21.31
        21.35   21.31   21.19   21.00   20.73   20.40   20.01   19.57   19.10   18.60   18.07   17.52   16.97   16.40   15.84
        15.27
  31    14.74   15.27   15.80   16.32   16.83   17.33   17.81   18.26   18.69   19.07   19.41   19.71   19.94   20.11   20.22
        20.25   20.22   20.11   19.94   19.71   19.41   19.07   18.69   18.26   17.81   17.33   16.83   16.32   15.80   15.27
        14.74
1
  VOLUMETRIC BUDGET FOR ENTIRE MODEL AT END OF TIME STEP  1 IN STRESS PERIOD  1
  -----------------------------------------------------------------------------

     CUMULATIVE VOLUMES      L**3       RATES FOR THIS TIME STEP      L**3/T
     ------------------                 ------------------------

           IN:                                      IN:
           ---                                      ---
       CONSTANT HEAD =           0.0000         CONSTANT HEAD =           0.0000
               WELLS =         100.0000                 WELLS =         100.0000

            TOTAL IN =         100.0000              TOTAL IN =         100.0000

          OUT:                                     OUT:
          ----                                     ----
       CONSTANT HEAD =         100.0001         CONSTANT HEAD =         100.0001
               WELLS =           0.0000                 WELLS =           0.0000

           TOTAL OUT =         100.0001             TOTAL OUT =         100.0001

            IN - OUT =      -6.1035E-05              IN - OUT =      -6.1035E-05

 PERCENT DISCREPANCY =           0.00     PERCENT DISCREPANCY =           0.00






          TIME SUMMARY AT END OF TIME STEP  1 IN STRESS PERIOD  1
                    SECONDS     MINUTES      HOURS       DAYS        YEARS
                    -----------------------------------------------------------
   TIME STEP LENGTH  86400.      1440.0      24.000      1.0000     2.73785E-03
 STRESS PERIOD TIME  86400.      1440.0      24.000      1.0000     2.73785E-03
         TOTAL TIME  86400.      1440.0      24.000      1.0000     2.73785E-03
1
