 LISTING FILE: p2.lst
                         UNIT   6

 OPENING p2.bas
 FILE TYPE:BAS   UNIT   1

 OPENING p2.bcf
 FILE TYPE:BCF   UNIT  11

 OPENING p2.sip
 FILE TYPE:SIP   UNIT  17

 OPENING p2.oc
 FILE TYPE:OC   UNIT  20

 OPENING p2.ftl
 FILE TYPE:LMT   UNIT  22

 OPENING p2.ufh
 FILE TYPE:DATA(BINARY)   UNIT  80
1                                 MODFLOW
      U.S. GEOLOGICAL SURVEY MODULAR FINITE-DIFFERENCE GROUND-WATER FLOW MODEL

 MT3DMS Benchmark Test Problem #2                                                
 Based on GROVE & STOLLENWERK (1984)                                             
    1 LAYERS         1 ROWS       101 COLUMNS
   1 STRESS PERIOD(S) IN SIMULATION
 MODEL TIME UNIT IS DAYS

 BAS5 -- BASIC MODEL PACKAGE, VERSION 5, 1/1/95 INPUT READ FROM UNIT  1
 ARRAYS RHS AND BUFF WILL SHARE MEMORY
 INITIAL HEAD WILL NOT BE KEPT THROUGHOUT THE SIMULATION, WHICH MEANS
 DRAWDOWN CANNOT BE CALCULATED
        914 ELEMENTS IN X ARRAY ARE USED BY BAS
        914 ELEMENTS OF X ARRAY USED OUT OF  999999999

 BCF5 -- BLOCK-CENTERED FLOW PACKAGE, VERSION 5, 9/1/93 INPUT READ FROM UNIT 11
 STEADY-STATE SIMULATION
 HEAD AT CELLS THAT CONVERT TO DRY=  0.10000E+31
 WETTING CAPABILITY IS NOT ACTIVE
      LAYER  LAYER-TYPE CODE     INTERBLOCK T
      --------------------------------------------
         1            0          0 -- HARMONIC    
          1 ELEMENTS IN X ARRAY ARE USED BY BCF
        915 ELEMENTS OF X ARRAY USED OUT OF  999999999

 SIP5 -- STRONGLY IMPLICIT PROCEDURE SOLUTION PACKAGE
                    VERSION 5, 9/1/93 INPUT READ FROM UNIT 17
 MAXIMUM OF 100 ITERATIONS ALLOWED FOR CLOSURE
  5 ITERATION PARAMETERS
        809 ELEMENTS IN X ARRAY ARE USED BY SIP
       1724 ELEMENTS OF X ARRAY USED OUT OF  999999999
1
 MT3DMS Benchmark Test Problem #2                                                
 Based on GROVE & STOLLENWERK (1984)                                             



                     BOUNDARY ARRAY FOR LAYER   1
 READING ON UNIT   1 WITH FORMAT: (40I2)              

       1  2  3  4  5  6  7  8  9 10 11 12 13 14 15 16 17 18 19 20 21 22 23 24 25 26 27 28 29 30 31 32 33 34 35 36 37 38 39 40
      41 42 43 44 45 46 47 48 49 50 51 52 53 54 55 56 57 58 59 60 61 62 63 64 65 66 67 68 69 70 71 72 73 74 75 76 77 78 79 80
      81 82 83 84 85 86 87 88 89 90 91 92 93 94 95 96 97 98 99100101
 ............................................................................................................................
   1  -1  1  1  1  1  1  1  1  1  1  1  1  1  1  1  1  1  1  1  1  1  1  1  1  1  1  1  1  1  1  1  1  1  1  1  1  1  1  1  1
       1  1  1  1  1  1  1  1  1  1  1  1  1  1  1  1  1  1  1  1  1  1  1  1  1  1  1  1  1  1  1  1  1  1  1  1  1  1  1  1
       1  1  1  1  1  1  1  1  1  1  1  1  1  1  1  1  1  1  1  1 -1

 AQUIFER HEAD WILL BE SET TO  999.99     AT ALL NO-FLOW NODES (IBOUND=0).



                       INITIAL HEAD FOR LAYER   1
 READING ON UNIT   1 WITH FORMAT: (16f5.0)            

           1          2          3          4          5          6          7          8          9         10         11
          12         13         14         15         16         17         18         19         20         21         22
          23         24         25         26         27         28         29         30         31         32         33
          34         35         36         37         38         39         40         41         42         43         44
          45         46         47         48         49         50         51         52         53         54         55
          56         57         58         59         60         61         62         63         64         65         66
          67         68         69         70         71         72         73         74         75         76         77
          78         79         80         81         82         83         84         85         86         87         88
          89         90         91         92         93         94         95         96         97         98         99
         100        101
 .........................................................................................................................
   1   0.592       0.00       0.00       0.00       0.00       0.00       0.00       0.00       0.00       0.00       0.00    
        0.00       0.00       0.00       0.00       0.00       0.00       0.00       0.00       0.00       0.00       0.00    
        0.00       0.00       0.00       0.00       0.00       0.00       0.00       0.00       0.00       0.00       0.00    
        0.00       0.00       0.00       0.00       0.00       0.00       0.00       0.00       0.00       0.00       0.00    
        0.00       0.00       0.00       0.00       0.00       0.00       0.00       0.00       0.00       0.00       0.00    
        0.00       0.00       0.00       0.00       0.00       0.00       0.00       0.00       0.00       0.00       0.00    
        0.00       0.00       0.00       0.00       0.00       0.00       0.00       0.00       0.00       0.00       0.00    
        0.00       0.00       0.00       0.00       0.00       0.00       0.00       0.00       0.00       0.00       0.00    
        0.00       0.00       0.00       0.00       0.00       0.00       0.00       0.00       0.00       0.00       0.00    
        0.00       0.00    

 OUTPUT CONTROL IS SPECIFIED EVERY TIME STEP
 HEAD PRINT FORMAT CODE IS   4    DRAWDOWN PRINT FORMAT CODE IS   4
 HEADS WILL BE SAVED ON UNIT  80    DRAWDOWNS WILL BE SAVED ON UNIT   0

 COLUMN TO ROW ANISOTROPY =   1.000000    

                     DELR =  0.1600000    

                     DELC =   1.000000    

     TRANSMIS. ALONG ROWS =   1.000000     FOR LAYER   1



          SOLUTION BY THE STRONGLY IMPLICIT PROCEDURE
          -------------------------------------------
 MAXIMUM ITERATIONS ALLOWED FOR CLOSURE =      100
                 ACCELERATION PARAMETER =     1.5000    
      HEAD CHANGE CRITERION FOR CLOSURE =    0.10000E-04
      SIP HEAD CHANGE PRINTOUT INTERVAL =        1

     5 ITERATION PARAMETERS CALCULATED FROM SPECIFIED WSEED = 0.00087000 :

  0.000000E+00 0.828257E+00 0.970504E+00 0.994934E+00 0.999130E+00
1
                            STRESS PERIOD NO.   1, LENGTH =   1.000000    
                            ----------------------------------------------

                              NUMBER OF TIME STEPS =     1

                               MULTIPLIER FOR DELT =     1.000

                            INITIAL TIME STEP SIZE =   1.000000    

    18 ITERATIONS FOR TIME STEP   1 IN STRESS PERIOD  1

 MAXIMUM HEAD CHANGE FOR EACH ITERATION:

    HEAD CHANGE   HEAD CHANGE   HEAD CHANGE   HEAD CHANGE   HEAD CHANGE
  LAYER,ROW,COL LAYER,ROW,COL LAYER,ROW,COL LAYER,ROW,COL LAYER,ROW,COL
 ----------------------------------------------------------------------
     0.8791       -0.4396        0.2198       -0.1099        0.5495E-01
  (  1,  1,  2) (  1,  1,  2) (  1,  1,  2) (  1,  1,  2) (  1,  1,  2)
    -0.2747E-01    0.1374E-01   -0.6868E-02    0.3434E-02   -0.1717E-02
  (  1,  1,  2) (  1,  1,  2) (  1,  1,  2) (  1,  1,  2) (  1,  1,  2)
     0.8585E-03   -0.4293E-03    0.2146E-03   -0.1073E-03    0.5366E-04
  (  1,  1,  2) (  1,  1,  2) (  1,  1,  2) (  1,  1,  2) (  1,  1,  2)
    -0.2683E-04    0.1341E-04   -0.6707E-05
  (  1,  1,  2) (  1,  1,  2) (  1,  1,  2)


 HEAD/DRAWDOWN PRINTOUT FLAG = 1     TOTAL BUDGET PRINTOUT FLAG = 0
 CELL-BY-CELL FLOW TERM FLAG = 0

 OUTPUT FLAGS FOR ALL LAYERS ARE THE SAME:
   HEAD    DRAWDOWN  HEAD  DRAWDOWN
 PRINTOUT  PRINTOUT  SAVE    SAVE
 ----------------------------------
     1         0       1       0

 SATURATED THICKNESS AND FLOW TERMS SAVED ON UNIT 22 FOR MT3D BY LINKMT3D PACKAGE 5.0
1
              HEAD IN LAYER  1 AT END OF TIME STEP  1 IN STRESS PERIOD  1
  -----------------------------------------------------------------------

           1       2       3       4       5       6       7       8       9      10      11      12      13      14      15
          16      17      18      19      20      21      22      23      24      25      26      27      28      29      30
          31      32      33      34      35      36      37      38      39      40      41      42      43      44      45
          46      47      48      49      50      51      52      53      54      55      56      57      58      59      60
          61      62      63      64      65      66      67      68      69      70      71      72      73      74      75
          76      77      78      79      80      81      82      83      84      85      86      87      88      89      90
          91      92      93      94      95      96      97      98      99     100     101
 ...........................................................................................................................
   1     0.59    0.59    0.58    0.57    0.57    0.56    0.56    0.55    0.54    0.54    0.53    0.53    0.52    0.52    0.51
         0.50    0.50    0.49    0.49    0.48    0.47    0.47    0.46    0.46    0.45    0.44    0.44    0.43    0.43    0.42
         0.41    0.41    0.40    0.40    0.39    0.38    0.38    0.37    0.37    0.36    0.36    0.35    0.34    0.34    0.33
         0.33    0.32    0.31    0.31    0.30    0.30    0.29    0.28    0.28    0.27    0.27    0.26    0.25    0.25    0.24
         0.24    0.23    0.22    0.22    0.21    0.21    0.20    0.20    0.19    0.18    0.18    0.17    0.17    0.16    0.15
         0.15    0.14    0.14    0.13    0.12    0.12    0.11    0.11    0.10    0.09    0.09    0.08    0.08    0.07    0.07
         0.06    0.05    0.05    0.04    0.04    0.03    0.02    0.02    0.01    0.01    0.00

 HEAD WILL BE SAVED ON UNIT  80 AT END OF TIME STEP  1, STRESS PERIOD  1
1
  VOLUMETRIC BUDGET FOR ENTIRE MODEL AT END OF TIME STEP  1 IN STRESS PERIOD  1
  -----------------------------------------------------------------------------

     CUMULATIVE VOLUMES      L**3       RATES FOR THIS TIME STEP      L**3/T
     ------------------                 ------------------------

           IN:                                      IN:
           ---                                      ---
       CONSTANT HEAD =       3.7014E-02         CONSTANT HEAD =       3.7014E-02

            TOTAL IN =       3.7014E-02              TOTAL IN =       3.7014E-02

          OUT:                                     OUT:
          ----                                     ----
       CONSTANT HEAD =       3.7000E-02         CONSTANT HEAD =       3.7000E-02

           TOTAL OUT =       3.7000E-02             TOTAL OUT =       3.7000E-02

            IN - OUT =       1.4115E-05              IN - OUT =       1.4115E-05

 PERCENT DISCREPANCY =           0.04     PERCENT DISCREPANCY =           0.04






          TIME SUMMARY AT END OF TIME STEP  1 IN STRESS PERIOD  1
                    SECONDS     MINUTES      HOURS       DAYS        YEARS
                    -----------------------------------------------------------
   TIME STEP LENGTH  86400.      1440.0      24.000      1.0000     2.73785E-03
 STRESS PERIOD TIME  86400.      1440.0      24.000      1.0000     2.73785E-03
         TOTAL TIME  86400.      1440.0      24.000      1.0000     2.73785E-03
1
