                                  MODFLOW-USG      
      U.S. GEOLOGICAL SURVEY MODULAR FINITE-DIFFERENCE GROUNDWATER FLOW MODEL
                            VERSION 1.2.00 03/21/2014

 LIST FILE: ex3D.lst
                         UNIT    7

 OPENING ex3D.bas
 FILE TYPE:BAS6   UNIT    1   STATUS:OLD    
 FORMAT:FORMATTED              ACCESS:SEQUENTIAL          

 OPENING ex3D.wel
 FILE TYPE:WEL   UNIT   14   STATUS:OLD    
 FORMAT:FORMATTED              ACCESS:SEQUENTIAL          

 OPENING ex3D.dis
 FILE TYPE:DIS   UNIT   12   STATUS:OLD    
 FORMAT:FORMATTED              ACCESS:SEQUENTIAL          

 OPENING ex3D.bcf
 FILE TYPE:BCF6   UNIT   11   STATUS:OLD    
 FORMAT:FORMATTED              ACCESS:SEQUENTIAL          

 OPENING ex3D.cln
 FILE TYPE:CLN   UNIT   13   STATUS:OLD    
 FORMAT:FORMATTED              ACCESS:SEQUENTIAL          

 OPENING ex3D.oc
 FILE TYPE:OC   UNIT   22   STATUS:OLD    
 FORMAT:FORMATTED              ACCESS:SEQUENTIAL          

 OPENING ex3D.sms
 FILE TYPE:SMS   UNIT   19   STATUS:OLD    
 FORMAT:FORMATTED              ACCESS:SEQUENTIAL          

 OPENING ex3D.cbb
 FILE TYPE:DATA(BINARY)   UNIT   50   STATUS:UNKNOWN
 FORMAT:BINARY                 ACCESS:SEQUENTIAL          

 OPENING ex3D.hds
 FILE TYPE:DATA(BINARY)   UNIT   30   STATUS:UNKNOWN
 FORMAT:BINARY                 ACCESS:SEQUENTIAL          

 OPENING ex3D.ddn
 FILE TYPE:DATA(BINARY)   UNIT   31   STATUS:UNKNOWN
 FORMAT:BINARY                 ACCESS:SEQUENTIAL          

 OPENING ex3D.cln.cbb
 FILE TYPE:DATA(BINARY)   UNIT   35   STATUS:UNKNOWN
 FORMAT:BINARY                 ACCESS:SEQUENTIAL          

 OPENING ex3D.cln.hds
 FILE TYPE:DATA(BINARY)   UNIT   36   STATUS:UNKNOWN
 FORMAT:BINARY                 ACCESS:SEQUENTIAL          

 OPENING ex3D.cln.afr
 FILE TYPE:DATA   UNIT   55   STATUS:UNKNOWN
 FORMAT:FORMATTED              ACCESS:SEQUENTIAL          

 BAS -- BASIC PACKAGE-USG      1.2.00 03/21/2014                        INPUT READ FROM UNIT    1
 
 # MODFLOW2005 Basic Package                                                     
 #                                                                               
 #

 DIS -- UNSTRUCTURED GRID DISCRETIZATION PACKAGE, VERSION 1 : 5/17/2010 - INPUT READ FROM UNIT   12
 # MODFLOW2000 Discretization File
    2 LAYERS       100 ROWS       100 COLUMNS
    1 STRESS PERIOD(S) IN SIMULATION
 MODEL TIME UNIT IS DAYS
 MODEL LENGTH UNIT IS UNDEFINED
  Confining bed flag for each layer:
   1   0

 CLN -- CONNECTED LINE NETWORK DISCRETIZATION PROCESS, VERSION 1, 3/3/2012 INPUT READ FROM UNIT   13
 FLAG (0) OR MAXIMUM NUMBER OF LINEAR NODES (NCLN) =      1
 FLAG (-VE) OR NUMBER OF LINEAR NODES (+VE) (ICLNNDS) =     -1
 NUMBER OF LINEAR NODE TO MATRIX GRID CONNECTIONS (NCLNGWC) =      2

 CELL-BY-CELL FLOWS WILL BE SAVED ON UNIT    35(FLAG ICLNCB IS GREATER THAN ZERO)
 CLN HEAD OUTPUT WILL BE SAVED ON UNIT   36(FLAG ICLNHD IS GREATER THAN ZERO)
 CLN DDN OUTPUT WILL NOT BE SAVED OR PRINTED (FLAG ICLNDD IS EQUAL TO ZERO)
 CLN IBOUND OUTPUT WILL NOT BE SAVED OR PRINTED (FLAG ICLNIB IS EQUAL TO ZERO)

    NODES PER CLN SEGMENT =         1

                     CONNECTED LINE NETWORK INFORMATION
                    ----------------------------------------
     CLN-NODE NO. CLNTYP ORIENTATION  CLN LENGTH    BOT ELEVATION         FANGLE         IFLIN           ICCWADI
     -----------  ------ ----------- -----------    -------------    -----------        ------    -------
              1      1          0    0.300000E+02   -0.200000E+02    0.157000E+01          0          0

                     CLN TO 3-D GRID CONNECTION INFORMATION
                    ----------------------------------------
     F-NODE NO.      LAYER        ROW     COLUMN  EQTN. TYPE           FSKIN           FLENG          FANISO   ICGWADI
     ----------      -----        ---     ------  -----------   ------------  --------------    ------------   -------
              1          1         50         50           0    0.000000E+00    0.100000E+02    0.100000E+01         1
              1          2         50         50           0    0.000000E+00    0.100000E+02    0.100000E+01         1

                     CONDUIT NODE INFORMATION
                    ----------------------------------------
     CONDUIT NODE        RADIUS   CONDUIT SAT K
     ------------        ------   -------------
              1    0.500000E+00    0.323000E+11

 DIS -- UNSTRUCTURED GRID DISCRETIZATION PACKAGE, VERSION 1 : 5/17/2010 - INPUT READ FROM UNIT   12

                     DELR =   470.000    

                     DELC =   470.000    

 TOP ELEVATION OF LAYER 1 =  10.00000    

   MODEL LAYER BOTTOM EL. =   0.00000     FOR LAYER   1

 BOT. EL. OF QUASI-3D BED = -10.00000     FOR LAYER   1

   MODEL LAYER BOTTOM EL. =  -20.0000     FOR LAYER   2


 STRESS PERIOD     LENGTH       TIME STEPS     MULTIPLIER FOR DELT    SS FLAG
 ----------------------------------------------------------------------------
        1         160.0000        160                    1.000         TR

 TRANSIENT SIMULATION




           BOUNDARY ARRAY =              1 FOR LAYER   1

           BOUNDARY ARRAY =              1 FOR LAYER   2

 AQUIFER HEAD WILL BE SET TO   999.00     AT ALL NO-FLOW NODES (IBOUND=0).

             INITIAL HEAD =  10.00000     FOR LAYER   1

             INITIAL HEAD =   30.0000     FOR LAYER   2

 OUTPUT CONTROL IS SPECIFIED ONLY AT TIME STEPS FOR WHICH OUTPUT IS DESIRED
 COMPACT CELL-BY-CELL BUDGET FILES WILL BE WRITTEN
 HEAD PRINT FORMAT CODE IS   0    DRAWDOWN PRINT FORMAT CODE IS   0
 HEADS WILL BE SAVED ON UNIT   30    DRAWDOWNS WILL BE SAVED ON UNIT   31

 BCF -- BLOCK-CENTERED FLOW PACKAGE, VERSION 7, 5/2/2005
         INPUT READ FROM UNIT 11
 TRANSIENT SIMULATION
 CELL-BY-CELL FLOWS WILL BE SAVED ON UNIT 50
 HEAD AT CELLS THAT CONVERT TO DRY= -1000.00    
 WETTING CAPABILITY IS NOT ACTIVE
 IKVFLAG=0, NODAL INPUT OF CV
      LAYER  LAYER-TYPE CODE     INTERBLOCK T
      --------------------------------------------
         1            4          0 -- HARMONIC    
         2            4          0 -- HARMONIC    

 COLUMN TO ROW ANISOTROPY =  1.000000    

     PRIMARY STORAGE COEF =  1.000000E-04 FOR LAYER   1

    HYD. COND. ALONG ROWS =  100.0000     FOR LAYER   1

 VERT HYD COND /THICKNESS =   0.00000     FOR LAYER   1

   SECONDARY STORAGE COEF =  1.000000E-02 FOR LAYER   1

     PRIMARY STORAGE COEF =  1.000000E-04 FOR LAYER   2

    HYD. COND. ALONG ROWS =   400.000     FOR LAYER   2

   SECONDARY STORAGE COEF =  1.000000E-02 FOR LAYER   2

 CLN -- CONDUIT DOMAIN FLOW PACKAGE, VERSION 1, 5/17/2010 INPUT READ FROM UNIT   13

  CONDUIT BOUNDARY ARRAY  =         1



              CONDUIT INITIAL HEAD 
 READING ON UNIT   13 WITH FORMAT: (10e12.4)           

 WEL -- WELL PACKAGE, VERSION 7, 5/2/2005 INPUT READ FROM UNIT   14
 No named parameters
 MAXIMUM OF      1 ACTIVE WELLS AT ONE TIME
 CELL-BY-CELL FLOWS WILL BE SAVED ON UNIT   50
 MAXIMUM NUMBER OF ACTIVE WELLS (MXACTW) =      1
 C-B-C FLUX FLAG OR UNIT NUMBER (IWELCB) = 50
 WELL FLUX WILL BE REDUCED WHEN SATURATED THICKNESS IS LESS THAN 1 PERCENT OF CELL THICKNESS
 WELL REDUCTION INFO WILL BE WRITTEN TO UNIT:    55


     0 Well parameters

 SMS -- SPARSE MATRIX SOLVER PACKAGE, VERSION 7, 5/2/2005
         INPUT READ FROM UNIT 19
 No named parameters
 ALL SOLVER INPUT DATA WILL BE READ 
FROM THE SOLVER INPUT FILE. 
 OUTER ITERATION CONVERGENCE CRITERION (HCLOSE) =    0.100000E-02
 INNER ITERATION CONVERGENCE CRITERION (HICLOSE) =    0.100000E-04
 MAXIMUM NUMBER OF OUTER ITERATIONS (MXITER)     =       220
 MAXIMUM NUMBER OF INNER ITERATIONS (ITER1)      =       600
 SOLVER PRINTOUT INDEX             (IPRSMS)      =         1
 NONLINEAR ITERATION METHOD    (NONLINMETH)      =         1
 LINEAR SOLUTION METHOD           (LINMETH)      =         1
 D-B-D WEIGHT REDUCTION FACTOR      (THETA)      =    0.900000E+00
 D-B-D WEIGHT INCREASE INCREMENT    (KAPPA)      =    0.700000E-01
 D-B-D PREVIOUS HISTORY FACTOR      (GAMMA)      =    0.100000E+00
 MOMENTUM TERM                  (AMOMENTUM)      =    0.000000E+00
 MAXIMUM NUMBER OF BACKTRACKS    (NUMTRACK)      =       200
 BACKTRACKING TOLERANCE FACTOR       (BTOL)      =    0.110000E+26
 BACKTRACKING REDUCTION FACTOR     (BREDUC)      =    0.200000E+00
 BACKTRACKING REIDUAL LIMIT       (RES_LIM)      =    0.100000E+01
 ***Newton Linearization will be used***
 
 ***XMD linear solver will be used***
 XMD -- LINEAR SOLUTION BY XMD PACKAGE VERSION 1.30
     BY MOTOMU IBARAKI, OHIO STATE UNIVERSITY, COLOMBUS, OH
                 INPUT READ FROM UNIT 19
 ACCELERATION METHOD                    (IACL) =         2
 EQUATION ORDERING FLAG               (NORDER) =         0
 LEVEL OF FILL                         (LEVEL) =         3
 MAXIMUM NUMBER OF ORTHOGONALIZATIONS  (NORTH) =         8
 INDEX FOR USING REDUCED SYSTEM      (IREDSYS) =         0
 RESID. REDUCTION CONVERGE CRITERION  (RRCTOL) =  0.000000E+00
 INDEX FOR USING DROP TOLERANCE     (IDROPTOL) =         0
 DROP TOLERANCE VALUE                 ((EPSRN) =  0.100000E-02
 
1
                            STRESS PERIOD NO.    1, LENGTH =   160.0000    
                            -----------------------------------------------

                              NUMBER OF TIME STEPS =   160

                               MULTIPLIER FOR DELT =     1.000

                            INITIAL TIME STEP SIZE =  1.0000000    

 WEL -- WELL PACKAGE, VERSION 7, 5/2/2005 INPUT READ FROM UNIT   14

 WELL NO.  CLN-NODE       STRESS FACTOR         
 -----------------------------------------------
      1           1     -0.6284E+05

      1 WELL 
 
 SOLVING FOR HEAD 

 Outer-Iteration  Inner-Iteration  Backtracking  Number of        Incoming       Outgoing  Maximum HeadChange      Maximum Head Change
     Number           Count           Flag       Backtracks       Residual       Residual           Value              Location
        1                             0             0          0.289505E+10     0.289505E+10
        1               17                                                                        -10.0485               2    50    50  lay row col
        1               17                                                                        -12.1749                     1           CLN-node number
        2                             0             0          0.451112E+09     0.451112E+09
        2               14                                                                         2.52661               1    50    50  lay row col
        2               14                                                                        -1.30669                     1           CLN-node number
        3                             0             0          0.149898E+08     0.149898E+08
        3               14                                                                        0.277472               2    50    50  lay row col
        3               14                                                                        0.612320                     1           CLN-node number
        4                             0             0           186396.          186396.    
        4               11                                                                       -0.299094E-01           1    50    50  lay row col
        4               11                                                                        0.647046E-01                 1           CLN-node number
        5                             0             0           1107.07          1107.07    
        5                5                                                                       -0.362367E-02           1    50    50  lay row col
        5                5                                                                        0.201316E-02                 1           CLN-node number
        6                             0             0           2.11259          2.11259    
        6                2                                                                       -0.181123E-03           1    50    50  lay row col
        6                2                                                                        0.266826E-05                 1           CLN-node number


     6 CALLS TO SPARSE MATRIX SOLVER PACKAGE  IN FLOW TIME STEP   1 STRESS PERIOD   1

 TOTAL OF       6OUTER ITERATIONS
  MAXIMUM CHANGE FOR EACH ITERATION:
  MAX. CHANGE   LAYER,  ROW,  COL MAX. CHANGE   LAYER,  ROW,  COL MAX. CHANGE   LAYER,  ROW,  COL MAX. CHANGE   LAYER,  ROW,  COL MAX. CHANGE   LAYER,  ROW,  COL
 ------------------------------------------------------------------------------------------------------------------------------------------
   -10.05     (    2,   50,   50)   2.527     (    1,   50,   50)  0.2775     (    2,   50,   50) -0.2991E-01 (    1,   50,   50) -0.3624E-02 (    1,   50,   50)
  -0.1811E-03 (    1,   50,   50)

  MAXIMUM CHANGE FOR CLN NODE AT EACH ITERATION:
   MAX. CHANGE    CLN-CELL  MAX. CHANGE    CLN-CELL  MAX. CHANGE    CLN-CELL  MAX. CHANGE    CLN-CELL  MAX. CHANGE    CLN-CELL
 ------------------------------------------------------------------------------------------------------------------------------------
   -12.175    ,          1  -1.3067    ,          1  0.61232    ,          1  0.64705E-01,          1  0.20132E-02,          1
   0.26683E-05,          1

 NO OUTPUT CONTROL FOR STRESS PERIOD        1   TIME STEP        1
 
 SOLVING FOR HEAD 

 Outer-Iteration  Inner-Iteration  Backtracking  Number of        Incoming       Outgoing  Maximum HeadChange      Maximum Head Change
     Number           Count           Flag       Backtracks       Residual       Residual           Value              Location
        1                             0             0          0.303707E+07     0.303707E+07
        1               14                                                                        -1.13334               2    49    49  lay row col
        1               14                                                                       -0.978865                     1           CLN-node number
        2                             0             0           960.762          960.762    
        2                7                                                                       -0.296186E-02           2    50    50  lay row col
        2                7                                                                       -0.654075E-02                 1           CLN-node number
        3                             0             0           1.75699          1.75699    
        3                2                                                                        0.144367E-03           1    50    50  lay row col
        3                2                                                                       -0.325168E-06                 1           CLN-node number
     3 CALLS TO SPARSE MATRIX SOLVER PACKAGE  IN FLOW TIME STEP   2 STRESS PERIOD   1

 TOTAL OF       3OUTER ITERATIONS
  MAXIMUM CHANGE FOR EACH ITERATION:
  MAX. CHANGE   LAYER,  ROW,  COL MAX. CHANGE   LAYER,  ROW,  COL MAX. CHANGE   LAYER,  ROW,  COL MAX. CHANGE   LAYER,  ROW,  COL MAX. CHANGE   LAYER,  ROW,  COL
 ------------------------------------------------------------------------------------------------------------------------------------------
   -1.133     (    2,   49,   49) -0.2962E-02 (    2,   50,   50)  0.1444E-03 (    1,   50,   50)

  MAXIMUM CHANGE FOR CLN NODE AT EACH ITERATION:
   MAX. CHANGE    CLN-CELL  MAX. CHANGE    CLN-CELL  MAX. CHANGE    CLN-CELL  MAX. CHANGE    CLN-CELL  MAX. CHANGE    CLN-CELL
 ------------------------------------------------------------------------------------------------------------------------------------
  -0.97887    ,          1 -0.65408E-02,          1 -0.32517E-06,          1

 NO OUTPUT CONTROL FOR STRESS PERIOD        1   TIME STEP        2
 
 SOLVING FOR HEAD 

 Outer-Iteration  Inner-Iteration  Backtracking  Number of        Incoming       Outgoing  Maximum HeadChange      Maximum Head Change
     Number           Count           Flag       Backtracks       Residual       Residual           Value              Location
        1                             0             0          0.152035E+07     0.152035E+07
        1               13                                                                       -0.589816               2    48    48  lay row col
        1               13                                                                       -0.522572                     1           CLN-node number
        2                             0             0           1351.20          1351.20    
        2                5                                                                       -0.963333E-03           2    50    50  lay row col
        2                5                                                                       -0.213398E-02                 1           CLN-node number
        3                             0             0           12.6124          12.6124    
        3                3                                                                        0.920067E-04           1    37    62  lay row col
        3                3                                                                       -0.308057E-05                 1           CLN-node number
     3 CALLS TO SPARSE MATRIX SOLVER PACKAGE  IN FLOW TIME STEP   3 STRESS PERIOD   1

 TOTAL OF       3OUTER ITERATIONS
  MAXIMUM CHANGE FOR EACH ITERATION:
  MAX. CHANGE   LAYER,  ROW,  COL MAX. CHANGE   LAYER,  ROW,  COL MAX. CHANGE   LAYER,  ROW,  COL MAX. CHANGE   LAYER,  ROW,  COL MAX. CHANGE   LAYER,  ROW,  COL
 ------------------------------------------------------------------------------------------------------------------------------------------
  -0.5898     (    2,   48,   48) -0.9633E-03 (    2,   50,   50)  0.9201E-04 (    1,   37,   62)

  MAXIMUM CHANGE FOR CLN NODE AT EACH ITERATION:
   MAX. CHANGE    CLN-CELL  MAX. CHANGE    CLN-CELL  MAX. CHANGE    CLN-CELL  MAX. CHANGE    CLN-CELL  MAX. CHANGE    CLN-CELL
 ------------------------------------------------------------------------------------------------------------------------------------
  -0.52257    ,          1 -0.21340E-02,          1 -0.30806E-05,          1

 NO OUTPUT CONTROL FOR STRESS PERIOD        1   TIME STEP        3
 
 SOLVING FOR HEAD 

 Outer-Iteration  Inner-Iteration  Backtracking  Number of        Incoming       Outgoing  Maximum HeadChange      Maximum Head Change
     Number           Count           Flag       Backtracks       Residual       Residual           Value              Location
        1                             0             0          0.102728E+07     0.102728E+07
        1               11                                                                       -0.419215               2    48    47  lay row col
        1               11                                                                       -0.373388                     1           CLN-node number
        2                             0             0           16754.0          16754.0    
        2                5                                                                        0.186648E-02           1    60    60  lay row col
        2                5                                                                       -0.111231E-02                 1           CLN-node number
        3                             0             0           167.065          167.065    
        3                3                                                                        0.186639E-03           1    60    60  lay row col
        3                3                                                                       -0.170293E-05                 1           CLN-node number
     3 CALLS TO SPARSE MATRIX SOLVER PACKAGE  IN FLOW TIME STEP   4 STRESS PERIOD   1

 TOTAL OF       3OUTER ITERATIONS
  MAXIMUM CHANGE FOR EACH ITERATION:
  MAX. CHANGE   LAYER,  ROW,  COL MAX. CHANGE   LAYER,  ROW,  COL MAX. CHANGE   LAYER,  ROW,  COL MAX. CHANGE   LAYER,  ROW,  COL MAX. CHANGE   LAYER,  ROW,  COL
 ------------------------------------------------------------------------------------------------------------------------------------------
  -0.4192     (    2,   48,   47)  0.1866E-02 (    1,   60,   60)  0.1866E-03 (    1,   60,   60)

  MAXIMUM CHANGE FOR CLN NODE AT EACH ITERATION:
   MAX. CHANGE    CLN-CELL  MAX. CHANGE    CLN-CELL  MAX. CHANGE    CLN-CELL  MAX. CHANGE    CLN-CELL  MAX. CHANGE    CLN-CELL
 ------------------------------------------------------------------------------------------------------------------------------------
  -0.37339    ,          1 -0.11123E-02,          1 -0.17029E-05,          1

 NO OUTPUT CONTROL FOR STRESS PERIOD        1   TIME STEP        4
 
 SOLVING FOR HEAD 

 Outer-Iteration  Inner-Iteration  Backtracking  Number of        Incoming       Outgoing  Maximum HeadChange      Maximum Head Change
     Number           Count           Flag       Backtracks       Residual       Residual           Value              Location
        1                             0             0           825657.          825657.    
        1               11                                                                       -0.344008               2    47    46  lay row col
        1               11                                                                       -0.305226                     1           CLN-node number
        2                             0             0           39256.8          39256.8    
        2                4                                                                        0.211738E-02           1    34    30  lay row col
        2                4                                                                       -0.734386E-03                 1           CLN-node number
        3                             0             0           392.201          392.201    
        3                3                                                                        0.211723E-03           1    34    30  lay row col
        3                3                                                                       -0.350791E-05                 1           CLN-node number
     3 CALLS TO SPARSE MATRIX SOLVER PACKAGE  IN FLOW TIME STEP   5 STRESS PERIOD   1

 TOTAL OF       3OUTER ITERATIONS
  MAXIMUM CHANGE FOR EACH ITERATION:
  MAX. CHANGE   LAYER,  ROW,  COL MAX. CHANGE   LAYER,  ROW,  COL MAX. CHANGE   LAYER,  ROW,  COL MAX. CHANGE   LAYER,  ROW,  COL MAX. CHANGE   LAYER,  ROW,  COL
 ------------------------------------------------------------------------------------------------------------------------------------------
  -0.3440     (    2,   47,   46)  0.2117E-02 (    1,   34,   30)  0.2117E-03 (    1,   34,   30)

  MAXIMUM CHANGE FOR CLN NODE AT EACH ITERATION:
   MAX. CHANGE    CLN-CELL  MAX. CHANGE    CLN-CELL  MAX. CHANGE    CLN-CELL  MAX. CHANGE    CLN-CELL  MAX. CHANGE    CLN-CELL
 ------------------------------------------------------------------------------------------------------------------------------------
  -0.30523    ,          1 -0.73439E-03,          1 -0.35079E-05,          1

 NO OUTPUT CONTROL FOR STRESS PERIOD        1   TIME STEP        5
 
 SOLVING FOR HEAD 

 Outer-Iteration  Inner-Iteration  Backtracking  Number of        Incoming       Outgoing  Maximum HeadChange      Maximum Head Change
     Number           Count           Flag       Backtracks       Residual       Residual           Value              Location
        1                             0             0           726485.          726485.    
        1               11                                                                       -0.306550               2    45    45  lay row col
        1               11                                                                       -0.270098                     1           CLN-node number
        2                             0             0           92798.8          92798.8    
        2                4                                                                        0.259973E-02           1    50    11  lay row col
        2                4                                                                       -0.563736E-03                 1           CLN-node number
        3                             0             0           927.892          927.892    
        3                2                                                                        0.259958E-03           1    50    11  lay row col
        3                2                                                                       -0.372460E-05                 1           CLN-node number
     3 CALLS TO SPARSE MATRIX SOLVER PACKAGE  IN FLOW TIME STEP   6 STRESS PERIOD   1

 TOTAL OF       3OUTER ITERATIONS
  MAXIMUM CHANGE FOR EACH ITERATION:
  MAX. CHANGE   LAYER,  ROW,  COL MAX. CHANGE   LAYER,  ROW,  COL MAX. CHANGE   LAYER,  ROW,  COL MAX. CHANGE   LAYER,  ROW,  COL MAX. CHANGE   LAYER,  ROW,  COL
 ------------------------------------------------------------------------------------------------------------------------------------------
  -0.3066     (    2,   45,   45)  0.2600E-02 (    1,   50,   11)  0.2600E-03 (    1,   50,   11)

  MAXIMUM CHANGE FOR CLN NODE AT EACH ITERATION:
   MAX. CHANGE    CLN-CELL  MAX. CHANGE    CLN-CELL  MAX. CHANGE    CLN-CELL  MAX. CHANGE    CLN-CELL  MAX. CHANGE    CLN-CELL
 ------------------------------------------------------------------------------------------------------------------------------------
  -0.27010    ,          1 -0.56374E-03,          1 -0.37246E-05,          1

 NO OUTPUT CONTROL FOR STRESS PERIOD        1   TIME STEP        6
 
 SOLVING FOR HEAD 

 Outer-Iteration  Inner-Iteration  Backtracking  Number of        Incoming       Outgoing  Maximum HeadChange      Maximum Head Change
     Number           Count           Flag       Backtracks       Residual       Residual           Value              Location
        1                             0             0           670019.          670019.    
        1               12                                                                       -0.286904               2    44    43  lay row col
        1               12                                                                       -0.250871                     1           CLN-node number
        2                             0             0           106567.          106567.    
        2                4                                                                        0.365554E-02           1   100    26  lay row col
        2                4                                                                       -0.477817E-03                 1           CLN-node number
        3                             0             0           1065.58          1065.58    
        3                2                                                                        0.365530E-03           1   100    26  lay row col
        3                2                                                                       -0.344371E-05                 1           CLN-node number
     3 CALLS TO SPARSE MATRIX SOLVER PACKAGE  IN FLOW TIME STEP   7 STRESS PERIOD   1

 TOTAL OF       3OUTER ITERATIONS
  MAXIMUM CHANGE FOR EACH ITERATION:
  MAX. CHANGE   LAYER,  ROW,  COL MAX. CHANGE   LAYER,  ROW,  COL MAX. CHANGE   LAYER,  ROW,  COL MAX. CHANGE   LAYER,  ROW,  COL MAX. CHANGE   LAYER,  ROW,  COL
 ------------------------------------------------------------------------------------------------------------------------------------------
  -0.2869     (    2,   44,   43)  0.3656E-02 (    1,  100,   26)  0.3655E-03 (    1,  100,   26)

  MAXIMUM CHANGE FOR CLN NODE AT EACH ITERATION:
   MAX. CHANGE    CLN-CELL  MAX. CHANGE    CLN-CELL  MAX. CHANGE    CLN-CELL  MAX. CHANGE    CLN-CELL  MAX. CHANGE    CLN-CELL
 ------------------------------------------------------------------------------------------------------------------------------------
  -0.25087    ,          1 -0.47782E-03,          1 -0.34437E-05,          1

 NO OUTPUT CONTROL FOR STRESS PERIOD        1   TIME STEP        7
 
 SOLVING FOR HEAD 

 Outer-Iteration  Inner-Iteration  Backtracking  Number of        Incoming       Outgoing  Maximum HeadChange      Maximum Head Change
     Number           Count           Flag       Backtracks       Residual       Residual           Value              Location
        1                             0             0           633709.          633709.    
        1               12                                                                       -0.276435               2    41    41  lay row col
        1               12                                                                       -0.239970                     1           CLN-node number
        2                             0             0           5428.60          5428.60    
        2                4                                                                        0.263996E-02           1   100   100  lay row col
        2                4                                                                       -0.429445E-03                 1           CLN-node number
        3                             0             0           54.2526          54.2526    
        3                2                                                                        0.263904E-03           1   100   100  lay row col
        3                2                                                                       -0.162171E-05                 1           CLN-node number
     3 CALLS TO SPARSE MATRIX SOLVER PACKAGE  IN FLOW TIME STEP   8 STRESS PERIOD   1

 TOTAL OF       3OUTER ITERATIONS
  MAXIMUM CHANGE FOR EACH ITERATION:
  MAX. CHANGE   LAYER,  ROW,  COL MAX. CHANGE   LAYER,  ROW,  COL MAX. CHANGE   LAYER,  ROW,  COL MAX. CHANGE   LAYER,  ROW,  COL MAX. CHANGE   LAYER,  ROW,  COL
 ------------------------------------------------------------------------------------------------------------------------------------------
  -0.2764     (    2,   41,   41)  0.2640E-02 (    1,  100,  100)  0.2639E-03 (    1,  100,  100)

  MAXIMUM CHANGE FOR CLN NODE AT EACH ITERATION:
   MAX. CHANGE    CLN-CELL  MAX. CHANGE    CLN-CELL  MAX. CHANGE    CLN-CELL  MAX. CHANGE    CLN-CELL  MAX. CHANGE    CLN-CELL
 ------------------------------------------------------------------------------------------------------------------------------------
  -0.23997    ,          1 -0.42945E-03,          1 -0.16217E-05,          1

 NO OUTPUT CONTROL FOR STRESS PERIOD        1   TIME STEP        8
 
 SOLVING FOR HEAD 

 Outer-Iteration  Inner-Iteration  Backtracking  Number of        Incoming       Outgoing  Maximum HeadChange      Maximum Head Change
     Number           Count           Flag       Backtracks       Residual       Residual           Value              Location
        1                             0             0           607593.          607593.    
        1               13                                                                       -0.270895               2    38    37  lay row col
        1               13                                                                       -0.233643                     1           CLN-node number
        2                             0             0           2.99083          2.99083    
        2                3                                                                       -0.175539E-03           2    50    50  lay row col
        2                3                                                                       -0.396364E-03                 1           CLN-node number
     2 CALLS TO SPARSE MATRIX SOLVER PACKAGE  IN FLOW TIME STEP   9 STRESS PERIOD   1

 TOTAL OF       2OUTER ITERATIONS
  MAXIMUM CHANGE FOR EACH ITERATION:
  MAX. CHANGE   LAYER,  ROW,  COL MAX. CHANGE   LAYER,  ROW,  COL MAX. CHANGE   LAYER,  ROW,  COL MAX. CHANGE   LAYER,  ROW,  COL MAX. CHANGE   LAYER,  ROW,  COL
 ------------------------------------------------------------------------------------------------------------------------------------------
  -0.2709     (    2,   38,   37) -0.1755E-03 (    2,   50,   50)

  MAXIMUM CHANGE FOR CLN NODE AT EACH ITERATION:
   MAX. CHANGE    CLN-CELL  MAX. CHANGE    CLN-CELL  MAX. CHANGE    CLN-CELL  MAX. CHANGE    CLN-CELL  MAX. CHANGE    CLN-CELL
 ------------------------------------------------------------------------------------------------------------------------------------
  -0.23364    ,          1 -0.39636E-03,          1

 NO OUTPUT CONTROL FOR STRESS PERIOD        1   TIME STEP        9
 
 SOLVING FOR HEAD 

 Outer-Iteration  Inner-Iteration  Backtracking  Number of        Incoming       Outgoing  Maximum HeadChange      Maximum Head Change
     Number           Count           Flag       Backtracks       Residual       Residual           Value              Location
        1                             0             0           589408.          589408.    
        1               12                                                                       -0.268066               2    33    33  lay row col
        1               12                                                                       -0.229926                     1           CLN-node number
        2                             0             0           2.78756          2.78756    
        2                3                                                                       -0.167458E-03           2    50    50  lay row col
        2                3                                                                       -0.378103E-03                 1           CLN-node number
     2 CALLS TO SPARSE MATRIX SOLVER PACKAGE  IN FLOW TIME STEP  10 STRESS PERIOD   1

 TOTAL OF       2OUTER ITERATIONS
  MAXIMUM CHANGE FOR EACH ITERATION:
  MAX. CHANGE   LAYER,  ROW,  COL MAX. CHANGE   LAYER,  ROW,  COL MAX. CHANGE   LAYER,  ROW,  COL MAX. CHANGE   LAYER,  ROW,  COL MAX. CHANGE   LAYER,  ROW,  COL
 ------------------------------------------------------------------------------------------------------------------------------------------
  -0.2681     (    2,   33,   33) -0.1675E-03 (    2,   50,   50)

  MAXIMUM CHANGE FOR CLN NODE AT EACH ITERATION:
   MAX. CHANGE    CLN-CELL  MAX. CHANGE    CLN-CELL  MAX. CHANGE    CLN-CELL  MAX. CHANGE    CLN-CELL  MAX. CHANGE    CLN-CELL
 ------------------------------------------------------------------------------------------------------------------------------------
  -0.22993    ,          1 -0.37810E-03,          1

 NO OUTPUT CONTROL FOR STRESS PERIOD        1   TIME STEP       10
 
 SOLVING FOR HEAD 

 Outer-Iteration  Inner-Iteration  Backtracking  Number of        Incoming       Outgoing  Maximum HeadChange      Maximum Head Change
     Number           Count           Flag       Backtracks       Residual       Residual           Value              Location
        1                             0             0           575573.          575573.    
        1               12                                                                       -0.266744               2    36    17  lay row col
        1               12                                                                       -0.227704                     1           CLN-node number
        2                             0             0           2.66264          2.66264    
        2                3                                                                       -0.162122E-03           2    50    50  lay row col
        2                3                                                                       -0.365996E-03                 1           CLN-node number
     2 CALLS TO SPARSE MATRIX SOLVER PACKAGE  IN FLOW TIME STEP  11 STRESS PERIOD   1

 TOTAL OF       2OUTER ITERATIONS
  MAXIMUM CHANGE FOR EACH ITERATION:
  MAX. CHANGE   LAYER,  ROW,  COL MAX. CHANGE   LAYER,  ROW,  COL MAX. CHANGE   LAYER,  ROW,  COL MAX. CHANGE   LAYER,  ROW,  COL MAX. CHANGE   LAYER,  ROW,  COL
 ------------------------------------------------------------------------------------------------------------------------------------------
  -0.2667     (    2,   36,   17) -0.1621E-03 (    2,   50,   50)

  MAXIMUM CHANGE FOR CLN NODE AT EACH ITERATION:
   MAX. CHANGE    CLN-CELL  MAX. CHANGE    CLN-CELL  MAX. CHANGE    CLN-CELL  MAX. CHANGE    CLN-CELL  MAX. CHANGE    CLN-CELL
 ------------------------------------------------------------------------------------------------------------------------------------
  -0.22770    ,          1 -0.36600E-03,          1

 NO OUTPUT CONTROL FOR STRESS PERIOD        1   TIME STEP       11
 
 SOLVING FOR HEAD 

 Outer-Iteration  Inner-Iteration  Backtracking  Number of        Incoming       Outgoing  Maximum HeadChange      Maximum Head Change
     Number           Count           Flag       Backtracks       Residual       Residual           Value              Location
        1                             0             0           564800.          564800.    
        1               12                                                                       -0.266212               2    29     1  lay row col
        1               12                                                                       -0.226381                     1           CLN-node number
        2                             0             0           2.58249          2.58249    
        2                3                                                                       -0.158424E-03           2    50    50  lay row col
        2                3                                                                       -0.357623E-03                 1           CLN-node number
     2 CALLS TO SPARSE MATRIX SOLVER PACKAGE  IN FLOW TIME STEP  12 STRESS PERIOD   1

 TOTAL OF       2OUTER ITERATIONS
  MAXIMUM CHANGE FOR EACH ITERATION:
  MAX. CHANGE   LAYER,  ROW,  COL MAX. CHANGE   LAYER,  ROW,  COL MAX. CHANGE   LAYER,  ROW,  COL MAX. CHANGE   LAYER,  ROW,  COL MAX. CHANGE   LAYER,  ROW,  COL
 ------------------------------------------------------------------------------------------------------------------------------------------
  -0.2662     (    2,   29,    1) -0.1584E-03 (    2,   50,   50)

  MAXIMUM CHANGE FOR CLN NODE AT EACH ITERATION:
   MAX. CHANGE    CLN-CELL  MAX. CHANGE    CLN-CELL  MAX. CHANGE    CLN-CELL  MAX. CHANGE    CLN-CELL  MAX. CHANGE    CLN-CELL
 ------------------------------------------------------------------------------------------------------------------------------------
  -0.22638    ,          1 -0.35762E-03,          1

 NO OUTPUT CONTROL FOR STRESS PERIOD        1   TIME STEP       12
 
 SOLVING FOR HEAD 

 Outer-Iteration  Inner-Iteration  Backtracking  Number of        Incoming       Outgoing  Maximum HeadChange      Maximum Head Change
     Number           Count           Flag       Backtracks       Residual       Residual           Value              Location
        1                             0             0           556194.          556194.    
        1               12                                                                       -0.265944               2     1     1  lay row col
        1               12                                                                       -0.225602                     1           CLN-node number
        2                             0             0           2.52871          2.52871    
        2                3                                                                       -0.155738E-03           2    50    50  lay row col
        2                3                                                                       -0.351558E-03                 1           CLN-node number
     2 CALLS TO SPARSE MATRIX SOLVER PACKAGE  IN FLOW TIME STEP  13 STRESS PERIOD   1

 TOTAL OF       2OUTER ITERATIONS
  MAXIMUM CHANGE FOR EACH ITERATION:
  MAX. CHANGE   LAYER,  ROW,  COL MAX. CHANGE   LAYER,  ROW,  COL MAX. CHANGE   LAYER,  ROW,  COL MAX. CHANGE   LAYER,  ROW,  COL MAX. CHANGE   LAYER,  ROW,  COL
 ------------------------------------------------------------------------------------------------------------------------------------------
  -0.2659     (    2,    1,    1) -0.1557E-03 (    2,   50,   50)

  MAXIMUM CHANGE FOR CLN NODE AT EACH ITERATION:
   MAX. CHANGE    CLN-CELL  MAX. CHANGE    CLN-CELL  MAX. CHANGE    CLN-CELL  MAX. CHANGE    CLN-CELL  MAX. CHANGE    CLN-CELL
 ------------------------------------------------------------------------------------------------------------------------------------
  -0.22560    ,          1 -0.35156E-03,          1

 NO OUTPUT CONTROL FOR STRESS PERIOD        1   TIME STEP       13
 
 SOLVING FOR HEAD 

 Outer-Iteration  Inner-Iteration  Backtracking  Number of        Incoming       Outgoing  Maximum HeadChange      Maximum Head Change
     Number           Count           Flag       Backtracks       Residual       Residual           Value              Location
        1                             0             0           549168.          549168.    
        1               12                                                                       -0.265595               2     1     1  lay row col
        1               12                                                                       -0.225160                     1           CLN-node number
        2                             0             0           2.49109          2.49109    
        2                3                                                                       -0.153705E-03           2    50    50  lay row col
        2                3                                                                       -0.346975E-03                 1           CLN-node number
     2 CALLS TO SPARSE MATRIX SOLVER PACKAGE  IN FLOW TIME STEP  14 STRESS PERIOD   1

 TOTAL OF       2OUTER ITERATIONS
  MAXIMUM CHANGE FOR EACH ITERATION:
  MAX. CHANGE   LAYER,  ROW,  COL MAX. CHANGE   LAYER,  ROW,  COL MAX. CHANGE   LAYER,  ROW,  COL MAX. CHANGE   LAYER,  ROW,  COL MAX. CHANGE   LAYER,  ROW,  COL
 ------------------------------------------------------------------------------------------------------------------------------------------
  -0.2656     (    2,    1,    1) -0.1537E-03 (    2,   50,   50)

  MAXIMUM CHANGE FOR CLN NODE AT EACH ITERATION:
   MAX. CHANGE    CLN-CELL  MAX. CHANGE    CLN-CELL  MAX. CHANGE    CLN-CELL  MAX. CHANGE    CLN-CELL  MAX. CHANGE    CLN-CELL
 ------------------------------------------------------------------------------------------------------------------------------------
  -0.22516    ,          1 -0.34697E-03,          1

 NO OUTPUT CONTROL FOR STRESS PERIOD        1   TIME STEP       14
 
 SOLVING FOR HEAD 

 Outer-Iteration  Inner-Iteration  Backtracking  Number of        Incoming       Outgoing  Maximum HeadChange      Maximum Head Change
     Number           Count           Flag       Backtracks       Residual       Residual           Value              Location
        1                             0             0           543317.          543317.    
        1               12                                                                       -0.265131               2     1     1  lay row col
        1               12                                                                       -0.224931                     1           CLN-node number
        2                             0             0           2.46374          2.46374    
        2                3                                                                       -0.152105E-03           2    50    50  lay row col
        2                3                                                                       -0.343375E-03                 1           CLN-node number
     2 CALLS TO SPARSE MATRIX SOLVER PACKAGE  IN FLOW TIME STEP  15 STRESS PERIOD   1

 TOTAL OF       2OUTER ITERATIONS
  MAXIMUM CHANGE FOR EACH ITERATION:
  MAX. CHANGE   LAYER,  ROW,  COL MAX. CHANGE   LAYER,  ROW,  COL MAX. CHANGE   LAYER,  ROW,  COL MAX. CHANGE   LAYER,  ROW,  COL MAX. CHANGE   LAYER,  ROW,  COL
 ------------------------------------------------------------------------------------------------------------------------------------------
  -0.2651     (    2,    1,    1) -0.1521E-03 (    2,   50,   50)

  MAXIMUM CHANGE FOR CLN NODE AT EACH ITERATION:
   MAX. CHANGE    CLN-CELL  MAX. CHANGE    CLN-CELL  MAX. CHANGE    CLN-CELL  MAX. CHANGE    CLN-CELL  MAX. CHANGE    CLN-CELL
 ------------------------------------------------------------------------------------------------------------------------------------
  -0.22493    ,          1 -0.34337E-03,          1

 NO OUTPUT CONTROL FOR STRESS PERIOD        1   TIME STEP       15
 
 SOLVING FOR HEAD 

 Outer-Iteration  Inner-Iteration  Backtracking  Number of        Incoming       Outgoing  Maximum HeadChange      Maximum Head Change
     Number           Count           Flag       Backtracks       Residual       Residual           Value              Location
        1                             0             0           538358.          538358.    
        1               12                                                                       -0.264614               2     1     1  lay row col
        1               12                                                                       -0.224839                     1           CLN-node number
        2                             0             0           2.44313          2.44313    
        2                3                                                                       -0.150807E-03           2    50    50  lay row col
        2                3                                                                       -0.340451E-03                 1           CLN-node number
     2 CALLS TO SPARSE MATRIX SOLVER PACKAGE  IN FLOW TIME STEP  16 STRESS PERIOD   1

 TOTAL OF       2OUTER ITERATIONS
  MAXIMUM CHANGE FOR EACH ITERATION:
  MAX. CHANGE   LAYER,  ROW,  COL MAX. CHANGE   LAYER,  ROW,  COL MAX. CHANGE   LAYER,  ROW,  COL MAX. CHANGE   LAYER,  ROW,  COL MAX. CHANGE   LAYER,  ROW,  COL
 ------------------------------------------------------------------------------------------------------------------------------------------
  -0.2646     (    2,    1,    1) -0.1508E-03 (    2,   50,   50)

  MAXIMUM CHANGE FOR CLN NODE AT EACH ITERATION:
   MAX. CHANGE    CLN-CELL  MAX. CHANGE    CLN-CELL  MAX. CHANGE    CLN-CELL  MAX. CHANGE    CLN-CELL  MAX. CHANGE    CLN-CELL
 ------------------------------------------------------------------------------------------------------------------------------------
  -0.22484    ,          1 -0.34045E-03,          1

 NO OUTPUT CONTROL FOR STRESS PERIOD        1   TIME STEP       16
 
 SOLVING FOR HEAD 

 Outer-Iteration  Inner-Iteration  Backtracking  Number of        Incoming       Outgoing  Maximum HeadChange      Maximum Head Change
     Number           Count           Flag       Backtracks       Residual       Residual           Value              Location
        1                             0             0           534086.          534086.    
        1               12                                                                       -0.264079               2     1     1  lay row col
        1               12                                                                       -0.224838                     1           CLN-node number
        2                             0             0           2.42710          2.42710    
        2                3                                                                       -0.149721E-03           2    50    50  lay row col
        2                3                                                                       -0.338004E-03                 1           CLN-node number
     2 CALLS TO SPARSE MATRIX SOLVER PACKAGE  IN FLOW TIME STEP  17 STRESS PERIOD   1

 TOTAL OF       2OUTER ITERATIONS
  MAXIMUM CHANGE FOR EACH ITERATION:
  MAX. CHANGE   LAYER,  ROW,  COL MAX. CHANGE   LAYER,  ROW,  COL MAX. CHANGE   LAYER,  ROW,  COL MAX. CHANGE   LAYER,  ROW,  COL MAX. CHANGE   LAYER,  ROW,  COL
 ------------------------------------------------------------------------------------------------------------------------------------------
  -0.2641     (    2,    1,    1) -0.1497E-03 (    2,   50,   50)

  MAXIMUM CHANGE FOR CLN NODE AT EACH ITERATION:
   MAX. CHANGE    CLN-CELL  MAX. CHANGE    CLN-CELL  MAX. CHANGE    CLN-CELL  MAX. CHANGE    CLN-CELL  MAX. CHANGE    CLN-CELL
 ------------------------------------------------------------------------------------------------------------------------------------
  -0.22484    ,          1 -0.33800E-03,          1

 NO OUTPUT CONTROL FOR STRESS PERIOD        1   TIME STEP       17
 
 SOLVING FOR HEAD 

 Outer-Iteration  Inner-Iteration  Backtracking  Number of        Incoming       Outgoing  Maximum HeadChange      Maximum Head Change
     Number           Count           Flag       Backtracks       Residual       Residual           Value              Location
        1                             0             0           530348.          530348.    
        1               12                                                                       -0.263544               2     1     1  lay row col
        1               12                                                                       -0.224900                     1           CLN-node number
        2                             0             0           2.41423          2.41423    
        2                3                                                                       -0.148786E-03           2    50    50  lay row col
        2                3                                                                       -0.335899E-03                 1           CLN-node number
     2 CALLS TO SPARSE MATRIX SOLVER PACKAGE  IN FLOW TIME STEP  18 STRESS PERIOD   1

 TOTAL OF       2OUTER ITERATIONS
  MAXIMUM CHANGE FOR EACH ITERATION:
  MAX. CHANGE   LAYER,  ROW,  COL MAX. CHANGE   LAYER,  ROW,  COL MAX. CHANGE   LAYER,  ROW,  COL MAX. CHANGE   LAYER,  ROW,  COL MAX. CHANGE   LAYER,  ROW,  COL
 ------------------------------------------------------------------------------------------------------------------------------------------
  -0.2635     (    2,    1,    1) -0.1488E-03 (    2,   50,   50)

  MAXIMUM CHANGE FOR CLN NODE AT EACH ITERATION:
   MAX. CHANGE    CLN-CELL  MAX. CHANGE    CLN-CELL  MAX. CHANGE    CLN-CELL  MAX. CHANGE    CLN-CELL  MAX. CHANGE    CLN-CELL
 ------------------------------------------------------------------------------------------------------------------------------------
  -0.22490    ,          1 -0.33590E-03,          1

 NO OUTPUT CONTROL FOR STRESS PERIOD        1   TIME STEP       18
 
 SOLVING FOR HEAD 

 Outer-Iteration  Inner-Iteration  Backtracking  Number of        Incoming       Outgoing  Maximum HeadChange      Maximum Head Change
     Number           Count           Flag       Backtracks       Residual       Residual           Value              Location
        1                             0             0           527032.          527032.    
        1               12                                                                       -0.263020               2     1     1  lay row col
        1               12                                                                       -0.225006                     1           CLN-node number
        2                             0             0           2.40356          2.40356    
        2                3                                                                       -0.147961E-03           2    50    50  lay row col
        2                3                                                                       -0.334040E-03                 1           CLN-node number
     2 CALLS TO SPARSE MATRIX SOLVER PACKAGE  IN FLOW TIME STEP  19 STRESS PERIOD   1

 TOTAL OF       2OUTER ITERATIONS
  MAXIMUM CHANGE FOR EACH ITERATION:
  MAX. CHANGE   LAYER,  ROW,  COL MAX. CHANGE   LAYER,  ROW,  COL MAX. CHANGE   LAYER,  ROW,  COL MAX. CHANGE   LAYER,  ROW,  COL MAX. CHANGE   LAYER,  ROW,  COL
 ------------------------------------------------------------------------------------------------------------------------------------------
  -0.2630     (    2,    1,    1) -0.1480E-03 (    2,   50,   50)

  MAXIMUM CHANGE FOR CLN NODE AT EACH ITERATION:
   MAX. CHANGE    CLN-CELL  MAX. CHANGE    CLN-CELL  MAX. CHANGE    CLN-CELL  MAX. CHANGE    CLN-CELL  MAX. CHANGE    CLN-CELL
 ------------------------------------------------------------------------------------------------------------------------------------
  -0.22501    ,          1 -0.33404E-03,          1

 NO OUTPUT CONTROL FOR STRESS PERIOD        1   TIME STEP       19
 
 SOLVING FOR HEAD 

 Outer-Iteration  Inner-Iteration  Backtracking  Number of        Incoming       Outgoing  Maximum HeadChange      Maximum Head Change
     Number           Count           Flag       Backtracks       Residual       Residual           Value              Location
        1                             0             0           524052.          524052.    
        1               12                                                                       -0.262509               2     1     1  lay row col
        1               12                                                                       -0.225144                     1           CLN-node number
        2                             0             0           2.39444          2.39444    
        2                3                                                                       -0.147215E-03           2    50    50  lay row col
        2                3                                                                       -0.332360E-03                 1           CLN-node number
     2 CALLS TO SPARSE MATRIX SOLVER PACKAGE  IN FLOW TIME STEP  20 STRESS PERIOD   1

 TOTAL OF       2OUTER ITERATIONS
  MAXIMUM CHANGE FOR EACH ITERATION:
  MAX. CHANGE   LAYER,  ROW,  COL MAX. CHANGE   LAYER,  ROW,  COL MAX. CHANGE   LAYER,  ROW,  COL MAX. CHANGE   LAYER,  ROW,  COL MAX. CHANGE   LAYER,  ROW,  COL
 ------------------------------------------------------------------------------------------------------------------------------------------
  -0.2625     (    2,    1,    1) -0.1472E-03 (    2,   50,   50)

  MAXIMUM CHANGE FOR CLN NODE AT EACH ITERATION:
   MAX. CHANGE    CLN-CELL  MAX. CHANGE    CLN-CELL  MAX. CHANGE    CLN-CELL  MAX. CHANGE    CLN-CELL  MAX. CHANGE    CLN-CELL
 ------------------------------------------------------------------------------------------------------------------------------------
  -0.22514    ,          1 -0.33236E-03,          1

 NO OUTPUT CONTROL FOR STRESS PERIOD        1   TIME STEP       20
 
 SOLVING FOR HEAD 

 Outer-Iteration  Inner-Iteration  Backtracking  Number of        Incoming       Outgoing  Maximum HeadChange      Maximum Head Change
     Number           Count           Flag       Backtracks       Residual       Residual           Value              Location
        1                             0             0           521339.          521339.    
        1               12                                                                       -0.262016               2     1     1  lay row col
        1               12                                                                       -0.225305                     1           CLN-node number
        2                             0             0           2.38641          2.38641    
        2                3                                                                       -0.146527E-03           2    50    50  lay row col
        2                3                                                                       -0.330809E-03                 1           CLN-node number
     2 CALLS TO SPARSE MATRIX SOLVER PACKAGE  IN FLOW TIME STEP  21 STRESS PERIOD   1

 TOTAL OF       2OUTER ITERATIONS
  MAXIMUM CHANGE FOR EACH ITERATION:
  MAX. CHANGE   LAYER,  ROW,  COL MAX. CHANGE   LAYER,  ROW,  COL MAX. CHANGE   LAYER,  ROW,  COL MAX. CHANGE   LAYER,  ROW,  COL MAX. CHANGE   LAYER,  ROW,  COL
 ------------------------------------------------------------------------------------------------------------------------------------------
  -0.2620     (    2,    1,    1) -0.1465E-03 (    2,   50,   50)

  MAXIMUM CHANGE FOR CLN NODE AT EACH ITERATION:
   MAX. CHANGE    CLN-CELL  MAX. CHANGE    CLN-CELL  MAX. CHANGE    CLN-CELL  MAX. CHANGE    CLN-CELL  MAX. CHANGE    CLN-CELL
 ------------------------------------------------------------------------------------------------------------------------------------
  -0.22531    ,          1 -0.33081E-03,          1

 NO OUTPUT CONTROL FOR STRESS PERIOD        1   TIME STEP       21
 
 SOLVING FOR HEAD 

 Outer-Iteration  Inner-Iteration  Backtracking  Number of        Incoming       Outgoing  Maximum HeadChange      Maximum Head Change
     Number           Count           Flag       Backtracks       Residual       Residual           Value              Location
        1                             0             0           518842.          518842.    
        1               12                                                                       -0.261539               2     1     1  lay row col
        1               12                                                                       -0.225485                     1           CLN-node number
        2                             0             0           2.37913          2.37913    
        2                3                                                                       -0.145880E-03           2    50    50  lay row col
        2                3                                                                       -0.329352E-03                 1           CLN-node number
     2 CALLS TO SPARSE MATRIX SOLVER PACKAGE  IN FLOW TIME STEP  22 STRESS PERIOD   1

 TOTAL OF       2OUTER ITERATIONS
  MAXIMUM CHANGE FOR EACH ITERATION:
  MAX. CHANGE   LAYER,  ROW,  COL MAX. CHANGE   LAYER,  ROW,  COL MAX. CHANGE   LAYER,  ROW,  COL MAX. CHANGE   LAYER,  ROW,  COL MAX. CHANGE   LAYER,  ROW,  COL
 ------------------------------------------------------------------------------------------------------------------------------------------
  -0.2615     (    2,    1,    1) -0.1459E-03 (    2,   50,   50)

  MAXIMUM CHANGE FOR CLN NODE AT EACH ITERATION:
   MAX. CHANGE    CLN-CELL  MAX. CHANGE    CLN-CELL  MAX. CHANGE    CLN-CELL  MAX. CHANGE    CLN-CELL  MAX. CHANGE    CLN-CELL
 ------------------------------------------------------------------------------------------------------------------------------------
  -0.22549    ,          1 -0.32935E-03,          1

 NO OUTPUT CONTROL FOR STRESS PERIOD        1   TIME STEP       22
 
 SOLVING FOR HEAD 

 Outer-Iteration  Inner-Iteration  Backtracking  Number of        Incoming       Outgoing  Maximum HeadChange      Maximum Head Change
     Number           Count           Flag       Backtracks       Residual       Residual           Value              Location
        1                             0             0           516520.          516520.    
        1               12                                                                       -0.261078               2     1     1  lay row col
        1               12                                                                       -0.225679                     1           CLN-node number
        2                             0             0           2.37235          2.37235    
        2                3                                                                       -0.145262E-03           2    50    50  lay row col
        2                3                                                                       -0.327962E-03                 1           CLN-node number
     2 CALLS TO SPARSE MATRIX SOLVER PACKAGE  IN FLOW TIME STEP  23 STRESS PERIOD   1

 TOTAL OF       2OUTER ITERATIONS
  MAXIMUM CHANGE FOR EACH ITERATION:
  MAX. CHANGE   LAYER,  ROW,  COL MAX. CHANGE   LAYER,  ROW,  COL MAX. CHANGE   LAYER,  ROW,  COL MAX. CHANGE   LAYER,  ROW,  COL MAX. CHANGE   LAYER,  ROW,  COL
 ------------------------------------------------------------------------------------------------------------------------------------------
  -0.2611     (    2,    1,    1) -0.1453E-03 (    2,   50,   50)

  MAXIMUM CHANGE FOR CLN NODE AT EACH ITERATION:
   MAX. CHANGE    CLN-CELL  MAX. CHANGE    CLN-CELL  MAX. CHANGE    CLN-CELL  MAX. CHANGE    CLN-CELL  MAX. CHANGE    CLN-CELL
 ------------------------------------------------------------------------------------------------------------------------------------
  -0.22568    ,          1 -0.32796E-03,          1

 NO OUTPUT CONTROL FOR STRESS PERIOD        1   TIME STEP       23
 
 SOLVING FOR HEAD 

 Outer-Iteration  Inner-Iteration  Backtracking  Number of        Incoming       Outgoing  Maximum HeadChange      Maximum Head Change
     Number           Count           Flag       Backtracks       Residual       Residual           Value              Location
        1                             0             0           514340.          514340.    
        1               12                                                                       -0.260633               2     1     1  lay row col
        1               12                                                                       -0.225884                     1           CLN-node number
        2                             0             0           2.36588          2.36588    
        2                3                                                                       -0.144663E-03           2    50    50  lay row col
        2                3                                                                       -0.326615E-03                 1           CLN-node number
     2 CALLS TO SPARSE MATRIX SOLVER PACKAGE  IN FLOW TIME STEP  24 STRESS PERIOD   1

 TOTAL OF       2OUTER ITERATIONS
  MAXIMUM CHANGE FOR EACH ITERATION:
  MAX. CHANGE   LAYER,  ROW,  COL MAX. CHANGE   LAYER,  ROW,  COL MAX. CHANGE   LAYER,  ROW,  COL MAX. CHANGE   LAYER,  ROW,  COL MAX. CHANGE   LAYER,  ROW,  COL
 ------------------------------------------------------------------------------------------------------------------------------------------
  -0.2606     (    2,    1,    1) -0.1447E-03 (    2,   50,   50)

  MAXIMUM CHANGE FOR CLN NODE AT EACH ITERATION:
   MAX. CHANGE    CLN-CELL  MAX. CHANGE    CLN-CELL  MAX. CHANGE    CLN-CELL  MAX. CHANGE    CLN-CELL  MAX. CHANGE    CLN-CELL
 ------------------------------------------------------------------------------------------------------------------------------------
  -0.22588    ,          1 -0.32661E-03,          1

 NO OUTPUT CONTROL FOR STRESS PERIOD        1   TIME STEP       24
 
 SOLVING FOR HEAD 

 Outer-Iteration  Inner-Iteration  Backtracking  Number of        Incoming       Outgoing  Maximum HeadChange      Maximum Head Change
     Number           Count           Flag       Backtracks       Residual       Residual           Value              Location
        1                             0             0           512274.          512274.    
        1               12                                                                       -0.260203               2     1     1  lay row col
        1               12                                                                       -0.226099                     1           CLN-node number
        2                             0             0           2.35954          2.35954    
        2                3                                                                       -0.144071E-03           2    50    50  lay row col
        2                3                                                                       -0.325291E-03                 1           CLN-node number
     2 CALLS TO SPARSE MATRIX SOLVER PACKAGE  IN FLOW TIME STEP  25 STRESS PERIOD   1

 TOTAL OF       2OUTER ITERATIONS
  MAXIMUM CHANGE FOR EACH ITERATION:
  MAX. CHANGE   LAYER,  ROW,  COL MAX. CHANGE   LAYER,  ROW,  COL MAX. CHANGE   LAYER,  ROW,  COL MAX. CHANGE   LAYER,  ROW,  COL MAX. CHANGE   LAYER,  ROW,  COL
 ------------------------------------------------------------------------------------------------------------------------------------------
  -0.2602     (    2,    1,    1) -0.1441E-03 (    2,   50,   50)

  MAXIMUM CHANGE FOR CLN NODE AT EACH ITERATION:
   MAX. CHANGE    CLN-CELL  MAX. CHANGE    CLN-CELL  MAX. CHANGE    CLN-CELL  MAX. CHANGE    CLN-CELL  MAX. CHANGE    CLN-CELL
 ------------------------------------------------------------------------------------------------------------------------------------
  -0.22610    ,          1 -0.32529E-03,          1

 NO OUTPUT CONTROL FOR STRESS PERIOD        1   TIME STEP       25
 
 SOLVING FOR HEAD 

 Outer-Iteration  Inner-Iteration  Backtracking  Number of        Incoming       Outgoing  Maximum HeadChange      Maximum Head Change
     Number           Count           Flag       Backtracks       Residual       Residual           Value              Location
        1                             0             0           510303.          510303.    
        1               12                                                                       -0.259786               2     1     1  lay row col
        1               12                                                                       -0.226321                     1           CLN-node number
        2                             0             0           2.35318          2.35318    
        2                3                                                                       -0.143461E-03           2    50    50  lay row col
        2                3                                                                       -0.323957E-03                 1           CLN-node number
     2 CALLS TO SPARSE MATRIX SOLVER PACKAGE  IN FLOW TIME STEP  26 STRESS PERIOD   1

 TOTAL OF       2OUTER ITERATIONS
  MAXIMUM CHANGE FOR EACH ITERATION:
  MAX. CHANGE   LAYER,  ROW,  COL MAX. CHANGE   LAYER,  ROW,  COL MAX. CHANGE   LAYER,  ROW,  COL MAX. CHANGE   LAYER,  ROW,  COL MAX. CHANGE   LAYER,  ROW,  COL
 ------------------------------------------------------------------------------------------------------------------------------------------
  -0.2598     (    2,    1,    1) -0.1435E-03 (    2,   50,   50)

  MAXIMUM CHANGE FOR CLN NODE AT EACH ITERATION:
   MAX. CHANGE    CLN-CELL  MAX. CHANGE    CLN-CELL  MAX. CHANGE    CLN-CELL  MAX. CHANGE    CLN-CELL  MAX. CHANGE    CLN-CELL
 ------------------------------------------------------------------------------------------------------------------------------------
  -0.22632    ,          1 -0.32396E-03,          1

 NO OUTPUT CONTROL FOR STRESS PERIOD        1   TIME STEP       26
 
 SOLVING FOR HEAD 

 Outer-Iteration  Inner-Iteration  Backtracking  Number of        Incoming       Outgoing  Maximum HeadChange      Maximum Head Change
     Number           Count           Flag       Backtracks       Residual       Residual           Value              Location
        1                             0             0           508407.          508407.    
        1               12                                                                       -0.259381               2     1     1  lay row col
        1               12                                                                       -0.226549                     1           CLN-node number
        2                             0             0           21631.8          21631.8    
        2                9                                                                        0.156728E-01           1    50    50  lay row col
        2                9                                                                       -0.297485E-01                 1           CLN-node number
        3                             0             0           113.573          113.573    
        3                2                                                                        0.156101E-02           1    50    50  lay row col
        3                2                                                                        0.535362E-05                 1           CLN-node number
        4                             0             0          0.101897         0.101897    
        4                2                                                                        0.468686E-04           1    50    50  lay row col
        4                2                                                                        0.177699E-05                 1           CLN-node number
     4 CALLS TO SPARSE MATRIX SOLVER PACKAGE  IN FLOW TIME STEP  27 STRESS PERIOD   1

 TOTAL OF       4OUTER ITERATIONS
  MAXIMUM CHANGE FOR EACH ITERATION:
  MAX. CHANGE   LAYER,  ROW,  COL MAX. CHANGE   LAYER,  ROW,  COL MAX. CHANGE   LAYER,  ROW,  COL MAX. CHANGE   LAYER,  ROW,  COL MAX. CHANGE   LAYER,  ROW,  COL
 ------------------------------------------------------------------------------------------------------------------------------------------
  -0.2594     (    2,    1,    1)  0.1567E-01 (    1,   50,   50)  0.1561E-02 (    1,   50,   50)  0.4687E-04 (    1,   50,   50)

  MAXIMUM CHANGE FOR CLN NODE AT EACH ITERATION:
   MAX. CHANGE    CLN-CELL  MAX. CHANGE    CLN-CELL  MAX. CHANGE    CLN-CELL  MAX. CHANGE    CLN-CELL  MAX. CHANGE    CLN-CELL
 ------------------------------------------------------------------------------------------------------------------------------------
  -0.22655    ,          1 -0.29749E-01,          1  0.53536E-05,          1  0.17770E-05,          1

 NO OUTPUT CONTROL FOR STRESS PERIOD        1   TIME STEP       27
 
 SOLVING FOR HEAD 

 Outer-Iteration  Inner-Iteration  Backtracking  Number of        Incoming       Outgoing  Maximum HeadChange      Maximum Head Change
     Number           Count           Flag       Backtracks       Residual       Residual           Value              Location
        1                             0             0           492510.          492510.    
        1               11                                                                       -0.266740               2    50    50  lay row col
        1               11                                                                       -0.277822                     1           CLN-node number
        2                             0             0          0.427317E-01     0.427317E-01
        2                2                                                                       -0.270691E-04           1    50    50  lay row col
        2                2                                                                        0.280640E-04                 1           CLN-node number
     2 CALLS TO SPARSE MATRIX SOLVER PACKAGE  IN FLOW TIME STEP  28 STRESS PERIOD   1

 TOTAL OF       2OUTER ITERATIONS
  MAXIMUM CHANGE FOR EACH ITERATION:
  MAX. CHANGE   LAYER,  ROW,  COL MAX. CHANGE   LAYER,  ROW,  COL MAX. CHANGE   LAYER,  ROW,  COL MAX. CHANGE   LAYER,  ROW,  COL MAX. CHANGE   LAYER,  ROW,  COL
 ------------------------------------------------------------------------------------------------------------------------------------------
  -0.2667     (    2,   50,   50) -0.2707E-04 (    1,   50,   50)

  MAXIMUM CHANGE FOR CLN NODE AT EACH ITERATION:
   MAX. CHANGE    CLN-CELL  MAX. CHANGE    CLN-CELL  MAX. CHANGE    CLN-CELL  MAX. CHANGE    CLN-CELL  MAX. CHANGE    CLN-CELL
 ------------------------------------------------------------------------------------------------------------------------------------
  -0.27782    ,          1  0.28064E-04,          1

 NO OUTPUT CONTROL FOR STRESS PERIOD        1   TIME STEP       28
 
 SOLVING FOR HEAD 

 Outer-Iteration  Inner-Iteration  Backtracking  Number of        Incoming       Outgoing  Maximum HeadChange      Maximum Head Change
     Number           Count           Flag       Backtracks       Residual       Residual           Value              Location
        1                             0             0           474302.          474302.    
        1               12                                                                       -0.265972               2    50    50  lay row col
        1               12                                                                       -0.274267                     1           CLN-node number
        2                             0             0          0.104017E-01     0.104017E-01
        2                2                                                                       -0.115027E-04           1    50    50  lay row col
        2                2                                                                        0.183227E-04                 1           CLN-node number
     2 CALLS TO SPARSE MATRIX SOLVER PACKAGE  IN FLOW TIME STEP  29 STRESS PERIOD   1

 TOTAL OF       2OUTER ITERATIONS
  MAXIMUM CHANGE FOR EACH ITERATION:
  MAX. CHANGE   LAYER,  ROW,  COL MAX. CHANGE   LAYER,  ROW,  COL MAX. CHANGE   LAYER,  ROW,  COL MAX. CHANGE   LAYER,  ROW,  COL MAX. CHANGE   LAYER,  ROW,  COL
 ------------------------------------------------------------------------------------------------------------------------------------------
  -0.2660     (    2,   50,   50) -0.1150E-04 (    1,   50,   50)

  MAXIMUM CHANGE FOR CLN NODE AT EACH ITERATION:
   MAX. CHANGE    CLN-CELL  MAX. CHANGE    CLN-CELL  MAX. CHANGE    CLN-CELL  MAX. CHANGE    CLN-CELL  MAX. CHANGE    CLN-CELL
 ------------------------------------------------------------------------------------------------------------------------------------
  -0.27427    ,          1  0.18323E-04,          1

 NO OUTPUT CONTROL FOR STRESS PERIOD        1   TIME STEP       29
 
 SOLVING FOR HEAD 

 Outer-Iteration  Inner-Iteration  Backtracking  Number of        Incoming       Outgoing  Maximum HeadChange      Maximum Head Change
     Number           Count           Flag       Backtracks       Residual       Residual           Value              Location
        1                             0             0           462370.          462370.    
        1               12                                                                       -0.265318               2    50    50  lay row col
        1               12                                                                       -0.272213                     1           CLN-node number
        2                             0             0          0.455039E-02     0.455039E-02
        2                2                                                                       -0.622908E-05           1    50    50  lay row col
        2                2                                                                        0.138098E-04                 1           CLN-node number
     2 CALLS TO SPARSE MATRIX SOLVER PACKAGE  IN FLOW TIME STEP  30 STRESS PERIOD   1

 TOTAL OF       2OUTER ITERATIONS
  MAXIMUM CHANGE FOR EACH ITERATION:
  MAX. CHANGE   LAYER,  ROW,  COL MAX. CHANGE   LAYER,  ROW,  COL MAX. CHANGE   LAYER,  ROW,  COL MAX. CHANGE   LAYER,  ROW,  COL MAX. CHANGE   LAYER,  ROW,  COL
 ------------------------------------------------------------------------------------------------------------------------------------------
  -0.2653     (    2,   50,   50) -0.6229E-05 (    1,   50,   50)

  MAXIMUM CHANGE FOR CLN NODE AT EACH ITERATION:
   MAX. CHANGE    CLN-CELL  MAX. CHANGE    CLN-CELL  MAX. CHANGE    CLN-CELL  MAX. CHANGE    CLN-CELL  MAX. CHANGE    CLN-CELL
 ------------------------------------------------------------------------------------------------------------------------------------
  -0.27221    ,          1  0.13810E-04,          1

 NO OUTPUT CONTROL FOR STRESS PERIOD        1   TIME STEP       30
 
 SOLVING FOR HEAD 

 Outer-Iteration  Inner-Iteration  Backtracking  Number of        Incoming       Outgoing  Maximum HeadChange      Maximum Head Change
     Number           Count           Flag       Backtracks       Residual       Residual           Value              Location
        1                             0             0           453018.          453018.    
        1               12                                                                       -0.264845               2    50    50  lay row col
        1               12                                                                       -0.270884                     1           CLN-node number
        2                             0             0          0.259296E-02     0.259296E-02
        2                2                                                                        0.493433E-05           2    50    50  lay row col
        2                2                                                                        0.112955E-04                 1           CLN-node number
     2 CALLS TO SPARSE MATRIX SOLVER PACKAGE  IN FLOW TIME STEP  31 STRESS PERIOD   1

 TOTAL OF       2OUTER ITERATIONS
  MAXIMUM CHANGE FOR EACH ITERATION:
  MAX. CHANGE   LAYER,  ROW,  COL MAX. CHANGE   LAYER,  ROW,  COL MAX. CHANGE   LAYER,  ROW,  COL MAX. CHANGE   LAYER,  ROW,  COL MAX. CHANGE   LAYER,  ROW,  COL
 ------------------------------------------------------------------------------------------------------------------------------------------
  -0.2648     (    2,   50,   50)  0.4934E-05 (    2,   50,   50)

  MAXIMUM CHANGE FOR CLN NODE AT EACH ITERATION:
   MAX. CHANGE    CLN-CELL  MAX. CHANGE    CLN-CELL  MAX. CHANGE    CLN-CELL  MAX. CHANGE    CLN-CELL  MAX. CHANGE    CLN-CELL
 ------------------------------------------------------------------------------------------------------------------------------------
  -0.27088    ,          1  0.11295E-04,          1

 NO OUTPUT CONTROL FOR STRESS PERIOD        1   TIME STEP       31
 
 SOLVING FOR HEAD 

 Outer-Iteration  Inner-Iteration  Backtracking  Number of        Incoming       Outgoing  Maximum HeadChange      Maximum Head Change
     Number           Count           Flag       Backtracks       Residual       Residual           Value              Location
[...]
        37.09       37.09       37.08       37.07       37.06       37.06       37.05       37.04       37.03       37.03    
        37.02       37.01       37.00       36.99       36.99       36.98       36.97       36.96       36.95       36.95    
        36.94       36.93       36.93       36.92       36.91       36.91       36.90       36.90       36.89       36.89    
        36.88       36.88       36.88       36.87       36.87       36.87       36.87       36.87       36.87       36.87    
  88    36.89       36.89       36.89       36.89       36.90       36.90       36.90       36.90       36.91       36.91    
        36.91       36.92       36.92       36.93       36.93       36.94       36.94       36.95       36.95       36.96    
        36.97       36.97       36.98       36.99       37.00       37.00       37.01       37.02       37.02       37.03    
        37.04       37.04       37.05       37.06       37.06       37.07       37.08       37.08       37.09       37.09    
        37.10       37.10       37.10       37.11       37.11       37.11       37.11       37.11       37.11       37.11    
        37.11       37.11       37.11       37.11       37.11       37.10       37.10       37.09       37.09       37.08    
        37.08       37.07       37.07       37.06       37.05       37.05       37.04       37.03       37.02       37.02    
        37.01       37.00       36.99       36.99       36.98       36.97       36.96       36.95       36.95       36.94    
        36.93       36.93       36.92       36.91       36.91       36.90       36.90       36.89       36.89       36.88    
        36.88       36.88       36.87       36.87       36.87       36.87       36.86       36.86       36.86       36.86    
  89    36.89       36.89       36.89       36.89       36.89       36.89       36.90       36.90       36.90       36.91    
        36.91       36.91       36.92       36.92       36.93       36.93       36.94       36.94       36.95       36.95    
        36.96       36.97       36.97       36.98       36.99       36.99       37.00       37.01       37.01       37.02    
        37.03       37.03       37.04       37.05       37.05       37.06       37.06       37.07       37.08       37.08    
        37.08       37.09       37.09       37.09       37.10       37.10       37.10       37.10       37.10       37.10    
        37.10       37.10       37.10       37.10       37.09       37.09       37.09       37.08       37.08       37.07    
        37.07       37.06       37.06       37.05       37.04       37.04       37.03       37.02       37.01       37.01    
        37.00       36.99       36.99       36.98       36.97       36.96       36.96       36.95       36.94       36.93    
        36.93       36.92       36.91       36.91       36.90       36.90       36.89       36.89       36.88       36.88    
        36.88       36.87       36.87       36.87       36.86       36.86       36.86       36.86       36.86       36.86    
  90    36.88       36.89       36.89       36.89       36.89       36.89       36.89       36.90       36.90       36.90    
        36.90       36.91       36.91       36.92       36.92       36.93       36.93       36.94       36.94       36.95    
        36.96       36.96       36.97       36.97       36.98       36.99       36.99       37.00       37.01       37.01    
        37.02       37.03       37.03       37.04       37.04       37.05       37.05       37.06       37.06       37.07    
        37.07       37.08       37.08       37.08       37.08       37.09       37.09       37.09       37.09       37.09    
        37.09       37.09       37.09       37.08       37.08       37.08       37.07       37.07       37.07       37.06    
        37.06       37.05       37.05       37.04       37.03       37.03       37.02       37.01       37.01       37.00    
        36.99       36.98       36.98       36.97       36.96       36.96       36.95       36.94       36.94       36.93    
        36.92       36.92       36.91       36.90       36.90       36.89       36.89       36.88       36.88       36.87    
        36.87       36.87       36.86       36.86       36.86       36.86       36.86       36.85       36.85       36.85    
  91    36.88       36.88       36.88       36.88       36.89       36.89       36.89       36.89       36.89       36.90    
        36.90       36.90       36.91       36.91       36.92       36.92       36.93       36.93       36.94       36.94    
        36.95       36.96       36.96       36.97       36.97       36.98       36.99       36.99       37.00       37.01    
        37.01       37.02       37.02       37.03       37.04       37.04       37.05       37.05       37.06       37.06    
        37.06       37.07       37.07       37.07       37.07       37.08       37.08       37.08       37.08       37.08    
        37.08       37.08       37.08       37.07       37.07       37.07       37.06       37.06       37.06       37.05    
        37.05       37.04       37.04       37.03       37.02       37.02       37.01       37.01       37.00       36.99    
        36.98       36.98       36.97       36.96       36.96       36.95       36.94       36.94       36.93       36.92    
        36.92       36.91       36.91       36.90       36.89       36.89       36.88       36.88       36.88       36.87    
        36.87       36.86       36.86       36.86       36.86       36.85       36.85       36.85       36.85       36.85    
  92    36.88       36.88       36.88       36.88       36.88       36.88       36.89       36.89       36.89       36.89    
        36.90       36.90       36.90       36.91       36.91       36.92       36.92       36.93       36.93       36.94    
        36.94       36.95       36.96       36.96       36.97       36.97       36.98       36.99       36.99       37.00    
        37.01       37.01       37.02       37.02       37.03       37.03       37.04       37.04       37.05       37.05    
        37.05       37.06       37.06       37.06       37.06       37.07       37.07       37.07       37.07       37.07    
        37.07       37.07       37.07       37.06       37.06       37.06       37.06       37.05       37.05       37.04    
        37.04       37.03       37.03       37.02       37.02       37.01       37.00       37.00       36.99       36.99    
        36.98       36.97       36.96       36.96       36.95       36.94       36.94       36.93       36.92       36.92    
        36.91       36.91       36.90       36.90       36.89       36.88       36.88       36.88       36.87       36.87    
        36.86       36.86       36.86       36.86       36.85       36.85       36.85       36.85       36.85       36.85    
  93    36.88       36.88       36.88       36.88       36.88       36.88       36.88       36.89       36.89       36.89    
        36.89       36.90       36.90       36.91       36.91       36.91       36.92       36.92       36.93       36.93    
        36.94       36.95       36.95       36.96       36.96       36.97       36.98       36.98       36.99       36.99    
        37.00       37.00       37.01       37.02       37.02       37.03       37.03       37.03       37.04       37.04    
        37.05       37.05       37.05       37.05       37.06       37.06       37.06       37.06       37.06       37.06    
        37.06       37.06       37.06       37.06       37.05       37.05       37.05       37.04       37.04       37.04    
        37.03       37.03       37.02       37.02       37.01       37.00       37.00       36.99       36.99       36.98    
        36.97       36.97       36.96       36.95       36.95       36.94       36.93       36.93       36.92       36.91    
        36.91       36.90       36.90       36.89       36.89       36.88       36.88       36.87       36.87       36.86    
        36.86       36.86       36.86       36.85       36.85       36.85       36.85       36.85       36.85       36.85    
  94    36.87       36.87       36.87       36.88       36.88       36.88       36.88       36.88       36.89       36.89    
        36.89       36.89       36.90       36.90       36.91       36.91       36.92       36.92       36.93       36.93    
        36.94       36.94       36.95       36.95       36.96       36.96       36.97       36.98       36.98       36.99    
        36.99       37.00       37.00       37.01       37.01       37.02       37.02       37.03       37.03       37.04    
        37.04       37.04       37.05       37.05       37.05       37.05       37.05       37.05       37.05       37.05    
        37.05       37.05       37.05       37.05       37.05       37.04       37.04       37.04       37.03       37.03    
        37.02       37.02       37.01       37.01       37.00       37.00       36.99       36.99       36.98       36.97    
        36.97       36.96       36.95       36.95       36.94       36.94       36.93       36.92       36.92       36.91    
        36.90       36.90       36.89       36.89       36.88       36.88       36.87       36.87       36.87       36.86    
        36.86       36.86       36.85       36.85       36.85       36.85       36.84       36.84       36.84       36.84    
  95    36.87       36.87       36.87       36.87       36.87       36.88       36.88       36.88       36.88       36.89    
        36.89       36.89       36.90       36.90       36.90       36.91       36.91       36.92       36.92       36.93    
        36.93       36.94       36.94       36.95       36.96       36.96       36.97       36.97       36.98       36.98    
        36.99       36.99       37.00       37.00       37.01       37.01       37.02       37.02       37.03       37.03    
        37.03       37.04       37.04       37.04       37.04       37.04       37.05       37.05       37.05       37.05    
        37.05       37.04       37.04       37.04       37.04       37.04       37.03       37.03       37.03       37.02    
        37.02       37.01       37.01       37.00       37.00       36.99       36.99       36.98       36.98       36.97    
        36.96       36.96       36.95       36.94       36.94       36.93       36.93       36.92       36.91       36.91    
        36.90       36.90       36.89       36.89       36.88       36.88       36.87       36.87       36.86       36.86    
        36.86       36.85       36.85       36.85       36.85       36.84       36.84       36.84       36.84       36.84    
  96    36.87       36.87       36.87       36.87       36.87       36.87       36.88       36.88       36.88       36.88    
        36.89       36.89       36.89       36.90       36.90       36.91       36.91       36.92       36.92       36.93    
        36.93       36.94       36.94       36.95       36.95       36.96       36.96       36.97       36.97       36.98    
        36.99       36.99       37.00       37.00       37.01       37.01       37.01       37.02       37.02       37.03    
        37.03       37.03       37.03       37.04       37.04       37.04       37.04       37.04       37.04       37.04    
        37.04       37.04       37.04       37.04       37.03       37.03       37.03       37.03       37.02       37.02    
        37.01       37.01       37.00       37.00       36.99       36.99       36.98       36.98       36.97       36.97    
        36.96       36.95       36.95       36.94       36.93       36.93       36.92       36.92       36.91       36.90    
        36.90       36.89       36.89       36.88       36.88       36.87       36.87       36.87       36.86       36.86    
        36.85       36.85       36.85       36.85       36.84       36.84       36.84       36.84       36.84       36.84    
  97    36.87       36.87       36.87       36.87       36.87       36.87       36.87       36.88       36.88       36.88    
        36.89       36.89       36.89       36.90       36.90       36.90       36.91       36.91       36.92       36.92    
        36.93       36.93       36.94       36.94       36.95       36.95       36.96       36.97       36.97       36.98    
        36.98       36.99       36.99       37.00       37.00       37.01       37.01       37.01       37.02       37.02    
        37.02       37.03       37.03       37.03       37.03       37.04       37.04       37.04       37.04       37.04    
        37.04       37.04       37.03       37.03       37.03       37.03       37.03       37.02       37.02       37.01    
        37.01       37.01       37.00       37.00       36.99       36.99       36.98       36.97       36.97       36.96    
        36.96       36.95       36.94       36.94       36.93       36.93       36.92       36.91       36.91       36.90    
        36.90       36.89       36.89       36.88       36.88       36.87       36.87       36.86       36.86       36.86    
        36.85       36.85       36.85       36.84       36.84       36.84       36.84       36.84       36.84       36.84    
  98    36.87       36.87       36.87       36.87       36.87       36.87       36.87       36.88       36.88       36.88    
        36.88       36.89       36.89       36.89       36.90       36.90       36.91       36.91       36.92       36.92    
        36.93       36.93       36.94       36.94       36.95       36.95       36.96       36.96       36.97       36.97    
        36.98       36.98       36.99       36.99       37.00       37.00       37.01       37.01       37.02       37.02    
        37.02       37.02       37.03       37.03       37.03       37.03       37.03       37.03       37.03       37.03    
        37.03       37.03       37.03       37.03       37.03       37.02       37.02       37.02       37.02       37.01    
        37.01       37.00       37.00       36.99       36.99       36.98       36.98       36.97       36.97       36.96    
        36.95       36.95       36.94       36.94       36.93       36.92       36.92       36.91       36.91       36.90    
        36.90       36.89       36.89       36.88       36.88       36.87       36.87       36.86       36.86       36.85    
        36.85       36.85       36.85       36.84       36.84       36.84       36.84       36.84       36.84       36.84    
  99    36.87       36.87       36.87       36.87       36.87       36.87       36.87       36.87       36.88       36.88    
        36.88       36.89       36.89       36.89       36.90       36.90       36.91       36.91       36.92       36.92    
        36.93       36.93       36.94       36.94       36.95       36.95       36.96       36.96       36.97       36.97    
        36.98       36.98       36.99       36.99       37.00       37.00       37.01       37.01       37.01       37.02    
        37.02       37.02       37.02       37.03       37.03       37.03       37.03       37.03       37.03       37.03    
        37.03       37.03       37.03       37.03       37.03       37.02       37.02       37.02       37.01       37.01    
        37.01       37.00       37.00       36.99       36.99       36.98       36.98       36.97       36.96       36.96    
        36.95       36.95       36.94       36.94       36.93       36.92       36.92       36.91       36.91       36.90    
        36.89       36.89       36.88       36.88       36.87       36.87       36.87       36.86       36.86       36.85    
        36.85       36.85       36.85       36.84       36.84       36.84       36.84       36.84       36.84       36.84    
 100    36.87       36.87       36.87       36.87       36.87       36.87       36.87       36.87       36.88       36.88    
        36.88       36.89       36.89       36.89       36.90       36.90       36.91       36.91       36.91       36.92    
        36.92       36.93       36.94       36.94       36.95       36.95       36.96       36.96       36.97       36.97    
        36.98       36.98       36.99       36.99       37.00       37.00       37.00       37.01       37.01       37.02    
        37.02       37.02       37.02       37.03       37.03       37.03       37.03       37.03       37.03       37.03    
        37.03       37.03       37.03       37.03       37.02       37.02       37.02       37.02       37.01       37.01    
        37.00       37.00       37.00       36.99       36.99       36.98       36.98       36.97       36.96       36.96    
        36.95       36.95       36.94       36.93       36.93       36.92       36.92       36.91       36.91       36.90    
        36.89       36.89       36.88       36.88       36.87       36.87       36.87       36.86       36.86       36.85    
        36.85       36.85       36.85       36.84       36.84       36.84       36.84       36.84       36.84       36.84    

 DRAWDOWN WILL BE SAVED ON UNIT   31 AT END OF TIME STEP 160, STRESS PERIOD    1
1
         CLN HEADS IN LAYER   1 AT END OF TIME STEP 160 IN STRESS PERIOD    1
  ---------------------------------------------------------------------------

            1
 ............
   1   -19.85    

 CLN HEAD WILL BE SAVED ON UNIT   36 AT END OF TIME STEP 160, STRESS PERIOD    1
1
      CLN DRAWDOWN IN LAYER   1 AT END OF TIME STEP 160 IN STRESS PERIOD    1
  ---------------------------------------------------------------------------

            1
 ............
   1    39.85    
1
  VOLUMETRIC BUDGET FOR ENTIRE MODEL AT END OF TIME STEP     160 IN STRESS PERIOD       1
  ---------------------------------------------------------------------------------------

     CUMULATIVE VOLUMES      L**3       RATES FOR THIS TIME STEP      L**3/T
     ------------------                 ------------------------

           IN:                                      IN:
           ---                                      ---
             STORAGE =     9031890.9672               STORAGE =       31572.5808
         CLN STORAGE =          23.4454           CLN STORAGE =       8.9134E-04
       CONSTANT HEAD =           0.0000         CONSTANT HEAD =           0.0000
      CLN CONST HEAD =           0.0000        CLN CONST HEAD =           0.0000
               WELLS =           0.0000                 WELLS =           0.0000

            TOTAL IN =     9031914.4125              TOTAL IN =       31572.5817

          OUT:                                     OUT:
          ----                                     ----
             STORAGE =         344.1649               STORAGE =           0.2352
         CLN STORAGE =           0.0000           CLN STORAGE =           0.0000
       CONSTANT HEAD =           0.0000         CONSTANT HEAD =           0.0000
      CLN CONST HEAD =           0.0000        CLN CONST HEAD =           0.0000
               WELLS =     9031616.5391                 WELLS =       31572.6035

           TOTAL OUT =     9031960.7039             TOTAL OUT =       31572.8387

            IN - OUT =         -46.2914              IN - OUT =          -0.2571

 PERCENT DISCREPANCY =          -0.00     PERCENT DISCREPANCY =          -0.00






          TIME SUMMARY AT END OF TIME STEP       160 IN STRESS PERIOD         1
                    SECONDS     MINUTES      HOURS       DAYS        YEARS
                    -----------------------------------------------------------
   TIME STEP LENGTH  86400.      1440.0      24.000     1.00000     2.73785E-03
 STRESS PERIOD TIME 1.38240E+07 2.30400E+05  3840.0      160.00     0.43806    
         TOTAL TIME 1.38240E+07 2.30400E+05  3840.0      160.00     0.43806    
1

 Run end date and time (yyyy/mm/dd hh:mm:ss): 2014/03/21  7:26:01
 Elapsed run time: 19.595 Seconds

