                             MODFLOW 6 PROFESSIONAL
                U.S. GEOLOGICAL SURVEY MODULAR HYDROLOGIC MODEL
                  VERSION 6.5.0.dev0 (preliminary) 07/13/2023
                               ***DEVELOP MODE***

        MODFLOW 6 compiled Oct 30 2023 08:23:02 with GCC version 11.3.0

This software is preliminary or provisional and is subject to 
revision. It is being provided to meet the need for timely best 
science. The software has not received final approval by the U.S. 
Geological Survey (USGS). No warranty, expressed or implied, is made 
by the USGS or the U.S. Government as to the functionality of the 
software and related material nor shall the fact of release 
constitute any such warranty. The software is provided on the 
condition that neither the USGS nor the U.S. Government shall be held 
liable for any damages resulting from the authorized or unauthorized 
use of the software.


As a work of the United States Government, this USGS product is 
in the public domain within the United States. You can copy, 
modify, distribute, and perform the work, even for commercial 
purposes, all without asking permission. Additionally, USGS 
waives copyright and related rights in the work worldwide 
through CC0 1.0 Universal Public Domain Dedication 
(https://creativecommons.org/publicdomain/zero/1.0/).

The following GNU Lesser General Public License (LGPL) libraries
are used in this USGS product:

    SPARSKIT version 2.0
      ilut, luson, and qsplit 
      (https://www-users.cse.umn.edu/~saad/software/SPARSKIT/)

    RCM - Reverse Cuthill McKee Ordering
      (https://people.math.sc.edu/Burkardt/f_src/rcm/rcm.html)

    BLAS - Basic Linear Algebra Subprograms Level 1
      (https://people.math.sc.edu/Burkardt/f_src/blas1_d/blas1_d.html)

    SPARSEKIT - Sparse Matrix Utility Package
      amux, dperm, dvperm, rperm, and cperm
      (https://people.sc.fsu.edu/~jburkardt/f77_src/sparsekit/sparsekit.html)

The following BSD-3 License libraries are used in this USGS product:

    Modern Fortran DAG Library
      Copyright (c) 2018, Jacob Williams
      All rights reserved.
      (https://github.com/jacobwilliams/daglib)

The following 2-clause BSD License library is used in this
USGS product:

    PETSc, the Portable, Extensible Toolkit for Scientific
    Computation Library
      Copyright (c) 1991-2021, UChicago Argonne, LLC
      and the PETSc Development Team All rights reserved.
      (https://petsc.org/release/)

MODFLOW 6 compiler options: -cpp -I src/libmf6core.a.p -I src -I ../src -I
src/libmf6_external.a.p -I
/home/mreno/.clone/external/petsc/arch-linux-c-debug/include -I
/home/mreno/.clone/external/petsc/include -I
/home/mreno/.clone/external/petsc/arch-linux-c-debug/lib -I
/home/mreno/miniconda3/envs/modflow6/include -I -fdiagnostics-color=always
-imultiarch x86_64-linux-gnu -D _FILE_OFFSET_BITS=64 -D __linux__ -D
__WITH_PETSC__ -D __WITH_MPI__ -D __WITH_NETCDF__ -mtune=generic
-march=x86-64 -g -O2 -Wall -Wpedantic -Wcharacter-truncation
-Wno-unused-dummy-argument -Wno-intrinsic-shadow -Wno-maybe-uninitialized
-Wno-uninitialized -std=f2008 -fall-intrinsics -fbacktrace -fcheck=all
-ffpe-trap=overflow,zero,invalid -ffpe-summary=overflow
-ffpe-trap=overflow,zero,invalid -fPIC -J src/libmf6core.a.p
-fpre-include=/usr/include/finclude/math-vector-fortran.h

System command used to initiate simulation:
/home/mreno/.clone/usgs/w/netcdf/2/modflow6/bin/mf6

MODFLOW was compiled using uniform precision.

Real Variables
  KIND: 8
  TINY (smallest non-zero value):    2.225074-308
  HUGE (largest value):    1.797693+308
  PRECISION: 15
  SIZE IN BITS: 64

Integer Variables
  KIND: 4
  HUGE (largest value): 2147483647
  SIZE IN BITS: 32

Long Integer Variables
  KIND: 8
  HUGE (largest value): 9223372036854775807
  SIZE IN BITS: 64

Logical Variables
  KIND: 4
  SIZE IN BITS: 32


 OPENED mfsim.nam
 FILE TYPE:NAM6      UNIT 1001   STATUS:OLD                 
 FORMAT:FORMATTED              ACCESS:SEQUENTIAL          
 ACTION:READ                

 # File generated by Flopy version 3.5.0.dev0 on 10/30/2023 at 09:20:40.

 OPENED gwf0.nam
 FILE TYPE:GWF6      UNIT 1002   STATUS:OLD                 
 FORMAT:FORMATTED              ACCESS:SEQUENTIAL          
 ACTION:READ                

 # File generated by Flopy version 3.5.0.dev0 on 10/30/2023 at 09:20:40.
Model NetCDF4 Input "gwf0.nc" opened NF90_NOWRITE, ncid=65536
IDM nc modeltype=GWF6
IDM load netcdf var model=GWF6, ptype=DIS6
IDM nc4_context pkg cname=GWF0, scname=DIS
IDM load nc model ctype=GWF
IDM load netcdf var model=GWF6, ptype=DIS6, sctype=DIS
Input parameter "NLAY" discovered for package "GWF0/DIS".
IDM load netcdf var model=GWF6, ptype=DIS6
IDM nc4_context pkg cname=GWF0, scname=DIS
IDM load nc model ctype=GWF
IDM load netcdf var model=GWF6, ptype=DIS6, sctype=DIS
Input parameter "NROW" discovered for package "GWF0/DIS".
IDM load netcdf var model=GWF6, ptype=DIS6
IDM nc4_context pkg cname=GWF0, scname=DIS
IDM load nc model ctype=GWF
IDM load netcdf var model=GWF6, ptype=DIS6, sctype=DIS
Input parameter "NCOL" discovered for package "GWF0/DIS".
IDM load netcdf var model=GWF6, ptype=DIS6
IDM nc4_context pkg cname=GWF0, scname=DIS
IDM load nc model ctype=GWF
IDM load netcdf var model=GWF6, ptype=DIS6, sctype=DIS
Input parameter "DELR" discovered for package "GWF0/DIS".
IDM load netcdf var model=GWF6, ptype=DIS6
IDM nc4_context pkg cname=GWF0, scname=DIS
IDM load nc model ctype=GWF
IDM load netcdf var model=GWF6, ptype=DIS6, sctype=DIS
Input parameter "DELC" discovered for package "GWF0/DIS".
IDM load netcdf var model=GWF6, ptype=DIS6
IDM nc4_context pkg cname=GWF0, scname=DIS
IDM load nc model ctype=GWF
IDM load netcdf var model=GWF6, ptype=DIS6, sctype=DIS
Input parameter "TOP" discovered for package "GWF0/DIS".
IDM load netcdf var model=GWF6, ptype=DIS6
IDM nc4_context pkg cname=GWF0, scname=DIS
IDM load nc model ctype=GWF
IDM load netcdf var model=GWF6, ptype=DIS6, sctype=DIS
Input parameter "BOTM" discovered for package "GWF0/DIS".
IDM load netcdf var model=GWF6, ptype=NPF6
IDM nc4_context pkg cname=GWF0, scname=DIS
IDM nc4_context pkg cname=GWF0, scname=NPF
IDM load nc model ctype=GWF
IDM load netcdf var model=GWF6, ptype=NPF6, sctype=NPF
Input parameter "SAVE_FLOWS" discovered for package "GWF0/NPF".
IDM load netcdf var model=GWF6, ptype=NPF6
IDM nc4_context pkg cname=GWF0, scname=DIS
IDM nc4_context pkg cname=GWF0, scname=NPF
IDM load nc model ctype=GWF
IDM load netcdf var model=GWF6, ptype=NPF6, sctype=NPF
Input parameter "REWET" discovered for package "GWF0/NPF".
IDM load netcdf var model=GWF6, ptype=NPF6
IDM nc4_context pkg cname=GWF0, scname=DIS
IDM nc4_context pkg cname=GWF0, scname=NPF
IDM load nc model ctype=GWF
IDM load netcdf var model=GWF6, ptype=NPF6, sctype=NPF
Input parameter "WETFCT" discovered for package "GWF0/NPF".
IDM load netcdf var model=GWF6, ptype=NPF6
IDM nc4_context pkg cname=GWF0, scname=DIS
IDM nc4_context pkg cname=GWF0, scname=NPF
IDM load nc model ctype=GWF
IDM load netcdf var model=GWF6, ptype=NPF6, sctype=NPF
Input parameter "IWETIT" discovered for package "GWF0/NPF".
IDM load netcdf var model=GWF6, ptype=NPF6
IDM nc4_context pkg cname=GWF0, scname=DIS
IDM nc4_context pkg cname=GWF0, scname=NPF
IDM load nc model ctype=GWF
IDM load netcdf var model=GWF6, ptype=NPF6, sctype=NPF
Input parameter "IHDWET" discovered for package "GWF0/NPF".
IDM load netcdf var model=GWF6, ptype=NPF6
IDM nc4_context pkg cname=GWF0, scname=DIS
IDM nc4_context pkg cname=GWF0, scname=NPF
IDM load nc model ctype=GWF
IDM load netcdf var model=GWF6, ptype=NPF6, sctype=NPF
Input parameter "ICELLTYPE" discovered for package "GWF0/NPF".
IDM load netcdf var model=GWF6, ptype=NPF6
IDM nc4_context pkg cname=GWF0, scname=DIS
IDM nc4_context pkg cname=GWF0, scname=NPF
IDM load nc model ctype=GWF
IDM load netcdf var model=GWF6, ptype=NPF6, sctype=NPF
Input parameter "K" discovered for package "GWF0/NPF".
IDM load netcdf var model=GWF6, ptype=NPF6
IDM nc4_context pkg cname=GWF0, scname=DIS
IDM nc4_context pkg cname=GWF0, scname=NPF
IDM load nc model ctype=GWF
IDM load netcdf var model=GWF6, ptype=NPF6, sctype=NPF
Input parameter "WETDRY" discovered for package "GWF0/NPF".
IDM load netcdf var model=GWF6, ptype=CHD6
IDM nc4_context pkg cname=GWF0, scname=DIS
IDM nc4_context pkg cname=GWF0, scname=NPF
IDM nc4_context pkg cname=GWF0, scname=CHD1
IDM load nc model ctype=GWF
IDM load netcdf var model=GWF6, ptype=CHD6, sctype=CHD
Input parameter "PRINT_INPUT" discovered for package "GWF0/CHD1".
IDM load netcdf var model=GWF6, ptype=CHD6
IDM nc4_context pkg cname=GWF0, scname=DIS
IDM nc4_context pkg cname=GWF0, scname=NPF
IDM nc4_context pkg cname=GWF0, scname=CHD1
IDM load nc model ctype=GWF
IDM load netcdf var model=GWF6, ptype=CHD6, sctype=CHD
Input parameter "SAVE_FLOWS" discovered for package "GWF0/CHD1".
IDM load netcdf var model=GWF6, ptype=CHD6
IDM nc4_context pkg cname=GWF0, scname=DIS
IDM nc4_context pkg cname=GWF0, scname=NPF
IDM nc4_context pkg cname=GWF0, scname=CHD1
IDM load nc model ctype=GWF
IDM load netcdf var model=GWF6, ptype=CHD6, sctype=CHD
Input parameter "MAXBOUND" discovered for package "GWF0/CHD1".
IDM load netcdf var model=GWF6, ptype=CHD6
IDM nc4_context pkg cname=GWF0, scname=DIS
IDM nc4_context pkg cname=GWF0, scname=NPF
IDM nc4_context pkg cname=GWF0, scname=CHD1
IDM load nc model ctype=GWF
IDM load netcdf var model=GWF6, ptype=CHD6
IDM nc4_context pkg cname=GWF0, scname=DIS
IDM nc4_context pkg cname=GWF0, scname=NPF
IDM nc4_context pkg cname=GWF0, scname=CHD1
IDM load nc model ctype=GWF
IDM load netcdf var model=GWF6, ptype=CHD6, sctype=CHD
Input parameter "CELLID" discovered for package "GWF0/CHD1".
IDM load netcdf var model=GWF6, ptype=CHD6
IDM nc4_context pkg cname=GWF0, scname=DIS
IDM nc4_context pkg cname=GWF0, scname=NPF
IDM nc4_context pkg cname=GWF0, scname=CHD1
IDM load nc model ctype=GWF
IDM load netcdf var model=GWF6, ptype=CHD6, sctype=CHD
Input parameter "HEAD" discovered for package "GWF0/CHD1".
IDM load netcdf var model=GWF6, ptype=CHD6
IDM nc4_context pkg cname=GWF0, scname=DIS
IDM nc4_context pkg cname=GWF0, scname=NPF
IDM nc4_context pkg cname=GWF0, scname=CHD1
IDM nc4_context pkg cname=GWF0, scname=CHD2
IDM load nc model ctype=GWF
IDM load netcdf var model=GWF6, ptype=CHD6, sctype=CHD
Input parameter "PRINT_INPUT" discovered for package "GWF0/CHD2".
IDM load netcdf var model=GWF6, ptype=CHD6
IDM nc4_context pkg cname=GWF0, scname=DIS
IDM nc4_context pkg cname=GWF0, scname=NPF
IDM nc4_context pkg cname=GWF0, scname=CHD1
IDM nc4_context pkg cname=GWF0, scname=CHD2
IDM load nc model ctype=GWF
IDM load netcdf var model=GWF6, ptype=CHD6, sctype=CHD
Input parameter "SAVE_FLOWS" discovered for package "GWF0/CHD2".
IDM load netcdf var model=GWF6, ptype=CHD6
IDM nc4_context pkg cname=GWF0, scname=DIS
IDM nc4_context pkg cname=GWF0, scname=NPF
IDM nc4_context pkg cname=GWF0, scname=CHD1
IDM nc4_context pkg cname=GWF0, scname=CHD2
IDM load nc model ctype=GWF
IDM load netcdf var model=GWF6, ptype=CHD6, sctype=CHD
Input parameter "MAXBOUND" discovered for package "GWF0/CHD2".
IDM load netcdf var model=GWF6, ptype=CHD6
IDM nc4_context pkg cname=GWF0, scname=DIS
IDM nc4_context pkg cname=GWF0, scname=NPF
IDM nc4_context pkg cname=GWF0, scname=CHD1
IDM nc4_context pkg cname=GWF0, scname=CHD2
IDM load nc model ctype=GWF
IDM load netcdf var model=GWF6, ptype=CHD6
IDM nc4_context pkg cname=GWF0, scname=DIS
IDM nc4_context pkg cname=GWF0, scname=NPF
IDM nc4_context pkg cname=GWF0, scname=CHD1
IDM nc4_context pkg cname=GWF0, scname=CHD2
IDM load nc model ctype=GWF
IDM load netcdf var model=GWF6, ptype=CHD6, sctype=CHD
Input parameter "CELLID" discovered for package "GWF0/CHD2".
IDM load netcdf var model=GWF6, ptype=CHD6
IDM nc4_context pkg cname=GWF0, scname=DIS
IDM nc4_context pkg cname=GWF0, scname=NPF
IDM nc4_context pkg cname=GWF0, scname=CHD1
IDM nc4_context pkg cname=GWF0, scname=CHD2
IDM load nc model ctype=GWF
IDM load netcdf var model=GWF6, ptype=CHD6, sctype=CHD
Input parameter "HEAD" discovered for package "GWF0/CHD2".
IDM input_load pkg=DIS
IDM NF90_MAX_DIMS=1024
IDM NF90_MAX_VAR_DIMS=1024
varname=NLAY, type=INTEGER
varname=NROW, type=INTEGER
varname=NCOL, type=INTEGER
varname=DELR, type=DOUBLE1D
varname=DELC, type=DOUBLE1D
varname=TOP, type=DOUBLE2D
varname=BOTM, type=DOUBLE3D
    ALL SIMULATION MEMORY INFORMATION WILL BE WRITTEN.

 DETAILED INFORMATION ON VARIABLES STORED IN THE MEMORY MANAGER
 -----------------------------------------------------------------------------------------------------------------------------------------------------------------------------
 ORIGIN                                             VARIABLE NAME    DATA TYPE             NUMBER OF ITEMS ASSOCIATED VARIABLE                                                
 -----------------------------------------------------------------------------------------------------------------------------------------------------------------------------
 __INPUT__/SIM/NAM                                  TDIS6            STRING LEN=300                      1 --                                                                 
 __INPUT__/SIM/NAM                                  MTYPE            STRING LEN=300                      1 --                                                                 
 __INPUT__/SIM/NAM                                  MFNAME           STRING LEN=300                      1 --                                                                 
 __INPUT__/SIM/NAM                                  MNAME            STRING LEN=300                      1 --                                                                 
 __INPUT__/SIM/NAM                                  EXGTYPE          STRING LEN=300                      0 --                                                                 
 __INPUT__/SIM/NAM                                  EXGFILE          STRING LEN=300                      0 --                                                                 
 __INPUT__/SIM/NAM                                  EXGMNAMEA        STRING LEN=300                      0 --                                                                 
 __INPUT__/SIM/NAM                                  EXGMNAMEB        STRING LEN=300                      0 --                                                                 
 __INPUT__/SIM/NAM                                  SOLUTIONGROUPNUM INTEGER                             1 --                                                                 
 __INPUT__/SIM/NAM                                  SLNTYPE          STRING LEN=300                      1 --                                                                 
 __INPUT__/SIM/NAM                                  SLNFNAME         STRING LEN=300                      1 --                                                                 
 __INPUT__/SIM/NAM                                  SLNMNAMES        STRING LEN=300                      1 --                                                                 
 __INPUT__/SIM/NAM                                  CONTINUE         INTEGER                             1 --                                                                 
 __INPUT__/SIM/NAM                                  NOCHECK          INTEGER                             1 --                                                                 
 __INPUT__/SIM/NAM                                  PRMEM            STRING LEN=300                      1 --                                                                 
 __INPUT__/SIM/NAM                                  MAXERRORS        INTEGER                             1 --                                                                 
 __INPUT__/SIM/NAM                                  PRINT_INPUT      INTEGER                             1 --                                                                 
 __INPUT__/SIM/NAM                                  MXITER           INTEGER                             1 --                                                                 
 __INPUT__/SIM                                      NUMMODELS        INTEGER                             1 --                                                                 
 __INPUT__/SIM                                      NUMEXCHANGES     INTEGER                             1 --                                                                 
 __INPUT__/GWF0/NAM                                 FTYPE            STRING LEN=300                      6 --                                                                 
 __INPUT__/GWF0/NAM                                 FNAME            STRING LEN=300                      6 --                                                                 
 __INPUT__/GWF0/NAM                                 PNAME            STRING LEN=300                      6 --                                                                 
 __INPUT__/GWF0                                     PKGTYPES         STRING LEN=7                        0 --                                                                 
 __INPUT__/GWF0                                     PKGNAMES         STRING LEN=16                       0 --                                                                 
 __INPUT__/GWF0                                     MEMPATHS         STRING LEN=50                       0 --                                                                 
 __INPUT__/GWF0                                     INUNITS          INTEGER                             0 --                                                                 
 __INPUT__/GWF0/DIS                                 INPUT_FNAME      STRING LEN=300                      1 --                                                                 
 __INPUT__/GWF0/NPF                                 INPUT_FNAME      STRING LEN=300                      1 --                                                                 
 __INPUT__/GWF0/CHD1                                INPUT_FNAME      STRING LEN=300                      1 --                                                                 
 __INPUT__/GWF0/CHD2                                INPUT_FNAME      STRING LEN=300                      1 --                                                                 
 __INPUT__/GWF0/DIS                                 NLAY             INTEGER                             1 --                                                                 
 __INPUT__/GWF0/DIS                                 NROW             INTEGER                             1 --                                                                 
 __INPUT__/GWF0/DIS                                 NCOL             INTEGER                             1 --                                                                 
 __INPUT__/GWF0                                     MODEL_SHAPE      INTEGER                             3 --                                                                 
 __INPUT__/GWF0                                     NCELLDIM         INTEGER                             1 --                                                                 
 __INPUT__/GWF0/DIS                                 DELR             DOUBLE                             15 --                                                                 
 __INPUT__/GWF0/DIS                                 DELC             DOUBLE                             10 --                                                                 
 __INPUT__/GWF0/DIS                                 TOP              DOUBLE                            150 --                                                                 
 __INPUT__/GWF0/DIS                                 BOTM             DOUBLE                            150 --                                                                 
 -----------------------------------------------------------------------------------------------------------------------------------------------------------------------------



 MEMORY MANAGER TOTAL STORAGE BY DATA TYPE, IN KILOBYTES
 -------------------------------
                    ALLOCATED   
 DATA TYPE           MEMORY     
 -------------------------------
 Character        1.8240000     
 Logical          0.0000000     
 Integer          6.00000000E-02
 Real             2.6000000     
 -------------------------------
 Total            4.4840000     
 Virtual          0.0000000     
 -------------------------------


IDM input_load pkg=NPF
IDM NF90_MAX_DIMS=1024
IDM NF90_MAX_VAR_DIMS=1024
varname=IPAKCB, type=KEYWORD
varname=IREWET, type=KEYWORD
varname=WETFCT, type=DOUBLE
varname=IWETIT, type=INTEGER
varname=IHDWET, type=INTEGER
varname=ICELLTYPE, type=INTEGER1D
varname=K, type=DOUBLE1D
varname=WETDRY, type=DOUBLE1D
    ALL SIMULATION MEMORY INFORMATION WILL BE WRITTEN.

 DETAILED INFORMATION ON VARIABLES STORED IN THE MEMORY MANAGER
 -----------------------------------------------------------------------------------------------------------------------------------------------------------------------------
 ORIGIN                                             VARIABLE NAME    DATA TYPE             NUMBER OF ITEMS ASSOCIATED VARIABLE                                                
 -----------------------------------------------------------------------------------------------------------------------------------------------------------------------------
 __INPUT__/SIM/NAM                                  TDIS6            STRING LEN=300                      1 --                                                                 
 __INPUT__/SIM/NAM                                  MTYPE            STRING LEN=300                      1 --                                                                 
 __INPUT__/SIM/NAM                                  MFNAME           STRING LEN=300                      1 --                                                                 
 __INPUT__/SIM/NAM                                  MNAME            STRING LEN=300                      1 --                                                                 
 __INPUT__/SIM/NAM                                  EXGTYPE          STRING LEN=300                      0 --                                                                 
 __INPUT__/SIM/NAM                                  EXGFILE          STRING LEN=300                      0 --                                                                 
 __INPUT__/SIM/NAM                                  EXGMNAMEA        STRING LEN=300                      0 --                                                                 
 __INPUT__/SIM/NAM                                  EXGMNAMEB        STRING LEN=300                      0 --                                                                 
 __INPUT__/SIM/NAM                                  SOLUTIONGROUPNUM INTEGER                             1 --                                                                 
 __INPUT__/SIM/NAM                                  SLNTYPE          STRING LEN=300                      1 --                                                                 
 __INPUT__/SIM/NAM                                  SLNFNAME         STRING LEN=300                      1 --                                                                 
 __INPUT__/SIM/NAM                                  SLNMNAMES        STRING LEN=300                      1 --                                                                 
 __INPUT__/SIM/NAM                                  CONTINUE         INTEGER                             1 --                                                                 
 __INPUT__/SIM/NAM                                  NOCHECK          INTEGER                             1 --                                                                 
 __INPUT__/SIM/NAM                                  PRMEM            STRING LEN=300                      1 --                                                                 
 __INPUT__/SIM/NAM                                  MAXERRORS        INTEGER                             1 --                                                                 
 __INPUT__/SIM/NAM                                  PRINT_INPUT      INTEGER                             1 --                                                                 
 __INPUT__/SIM/NAM                                  MXITER           INTEGER                             1 --                                                                 
 __INPUT__/SIM                                      NUMMODELS        INTEGER                             1 --                                                                 
 __INPUT__/SIM                                      NUMEXCHANGES     INTEGER                             1 --                                                                 
 __INPUT__/GWF0/NAM                                 FTYPE            STRING LEN=300                      6 --                                                                 
 __INPUT__/GWF0/NAM                                 FNAME            STRING LEN=300                      6 --                                                                 
 __INPUT__/GWF0/NAM                                 PNAME            STRING LEN=300                      6 --                                                                 
 __INPUT__/GWF0                                     PKGTYPES         STRING LEN=7                        0 --                                                                 
 __INPUT__/GWF0                                     PKGNAMES         STRING LEN=16                       0 --                                                                 
 __INPUT__/GWF0                                     MEMPATHS         STRING LEN=50                       0 --                                                                 
 __INPUT__/GWF0                                     INUNITS          INTEGER                             0 --                                                                 
 __INPUT__/GWF0/DIS                                 INPUT_FNAME      STRING LEN=300                      1 --                                                                 
 __INPUT__/GWF0/NPF                                 INPUT_FNAME      STRING LEN=300                      1 --                                                                 
 __INPUT__/GWF0/CHD1                                INPUT_FNAME      STRING LEN=300                      1 --                                                                 
 __INPUT__/GWF0/CHD2                                INPUT_FNAME      STRING LEN=300                      1 --                                                                 
 __INPUT__/GWF0/DIS                                 NLAY             INTEGER                             1 --                                                                 
 __INPUT__/GWF0/DIS                                 NROW             INTEGER                             1 --                                                                 
 __INPUT__/GWF0/DIS                                 NCOL             INTEGER                             1 --                                                                 
 __INPUT__/GWF0                                     MODEL_SHAPE      INTEGER                             3 --                                                                 
 __INPUT__/GWF0                                     NCELLDIM         INTEGER                             1 --                                                                 
 __INPUT__/GWF0/DIS                                 DELR             DOUBLE                             15 --                                                                 
 __INPUT__/GWF0/DIS                                 DELC             DOUBLE                             10 --                                                                 
 __INPUT__/GWF0/DIS                                 TOP              DOUBLE                            150 --                                                                 
 __INPUT__/GWF0/DIS                                 BOTM             DOUBLE                            150 --                                                                 
 __INPUT__/GWF0/NPF                                 IPAKCB           INTEGER                             1 --                                                                 
 __INPUT__/GWF0/NPF                                 IREWET           INTEGER                             1 --                                                                 
 __INPUT__/GWF0/NPF                                 WETFCT           DOUBLE                              1 --                                                                 
 __INPUT__/GWF0/NPF                                 IWETIT           INTEGER                             1 --                                                                 
 __INPUT__/GWF0/NPF                                 IHDWET           INTEGER                             1 --                                                                 
 __INPUT__/GWF0/NPF                                 ICELLTYPE        INTEGER                           150 --                                                                 
 __INPUT__/GWF0/NPF                                 K                DOUBLE                            150 --                                                                 
 __INPUT__/GWF0/NPF                                 WETDRY           DOUBLE                            150 --                                                                 
 -----------------------------------------------------------------------------------------------------------------------------------------------------------------------------



 MEMORY MANAGER TOTAL STORAGE BY DATA TYPE, IN KILOBYTES
 -------------------------------
                    ALLOCATED   
 DATA TYPE           MEMORY     
 -------------------------------
 Character        1.8240000     
 Logical          0.0000000     
 Integer          0.68000000    
 Real             5.0000000     
 -------------------------------
 Total            7.5040000     
 Virtual          0.0000000     
 -------------------------------



 OPENED gwf0.ic
 FILE TYPE:IC6       UNIT 1003   STATUS:OLD                 
 FORMAT:FORMATTED              ACCESS:SEQUENTIAL          
 ACTION:READ                


 OPENED gwf0.oc
 FILE TYPE:OC6       UNIT 1004   STATUS:OLD                 
 FORMAT:FORMATTED              ACCESS:SEQUENTIAL          
 ACTION:READ                

IDM input_load pkg=CHD1
IDM NF90_MAX_DIMS=1024
IDM NF90_MAX_VAR_DIMS=1024
varname=IPRPAK, type=KEYWORD
varname=IPAKCB, type=KEYWORD
varname=MAXBOUND, type=INTEGER
    ALL SIMULATION MEMORY INFORMATION WILL BE WRITTEN.

 DETAILED INFORMATION ON VARIABLES STORED IN THE MEMORY MANAGER
 -----------------------------------------------------------------------------------------------------------------------------------------------------------------------------
 ORIGIN                                             VARIABLE NAME    DATA TYPE             NUMBER OF ITEMS ASSOCIATED VARIABLE                                                
 -----------------------------------------------------------------------------------------------------------------------------------------------------------------------------
 __INPUT__/SIM/NAM                                  TDIS6            STRING LEN=300                      1 --                                                                 
 __INPUT__/SIM/NAM                                  MTYPE            STRING LEN=300                      1 --                                                                 
 __INPUT__/SIM/NAM                                  MFNAME           STRING LEN=300                      1 --                                                                 
 __INPUT__/SIM/NAM                                  MNAME            STRING LEN=300                      1 --                                                                 
 __INPUT__/SIM/NAM                                  EXGTYPE          STRING LEN=300                      0 --                                                                 
 __INPUT__/SIM/NAM                                  EXGFILE          STRING LEN=300                      0 --                                                                 
 __INPUT__/SIM/NAM                                  EXGMNAMEA        STRING LEN=300                      0 --                                                                 
 __INPUT__/SIM/NAM                                  EXGMNAMEB        STRING LEN=300                      0 --                                                                 
 __INPUT__/SIM/NAM                                  SOLUTIONGROUPNUM INTEGER                             1 --                                                                 
 __INPUT__/SIM/NAM                                  SLNTYPE          STRING LEN=300                      1 --                                                                 
 __INPUT__/SIM/NAM                                  SLNFNAME         STRING LEN=300                      1 --                                                                 
 __INPUT__/SIM/NAM                                  SLNMNAMES        STRING LEN=300                      1 --                                                                 
 __INPUT__/SIM/NAM                                  CONTINUE         INTEGER                             1 --                                                                 
 __INPUT__/SIM/NAM                                  NOCHECK          INTEGER                             1 --                                                                 
 __INPUT__/SIM/NAM                                  PRMEM            STRING LEN=300                      1 --                                                                 
 __INPUT__/SIM/NAM                                  MAXERRORS        INTEGER                             1 --                                                                 
 __INPUT__/SIM/NAM                                  PRINT_INPUT      INTEGER                             1 --                                                                 
 __INPUT__/SIM/NAM                                  MXITER           INTEGER                             1 --                                                                 
 __INPUT__/SIM                                      NUMMODELS        INTEGER                             1 --                                                                 
 __INPUT__/SIM                                      NUMEXCHANGES     INTEGER                             1 --                                                                 
 __INPUT__/GWF0/NAM                                 FTYPE            STRING LEN=300                      6 --                                                                 
 __INPUT__/GWF0/NAM                                 FNAME            STRING LEN=300                      6 --                                                                 
 __INPUT__/GWF0/NAM                                 PNAME            STRING LEN=300                      6 --                                                                 
 __INPUT__/GWF0                                     PKGTYPES         STRING LEN=7                        0 --                                                                 
 __INPUT__/GWF0                                     PKGNAMES         STRING LEN=16                       0 --                                                                 
 __INPUT__/GWF0                                     MEMPATHS         STRING LEN=50                       0 --                                                                 
 __INPUT__/GWF0                                     INUNITS          INTEGER                             0 --                                                                 
 __INPUT__/GWF0/DIS                                 INPUT_FNAME      STRING LEN=300                      1 --                                                                 
 __INPUT__/GWF0/NPF                                 INPUT_FNAME      STRING LEN=300                      1 --                                                                 
 __INPUT__/GWF0/CHD1                                INPUT_FNAME      STRING LEN=300                      1 --                                                                 
 __INPUT__/GWF0/CHD2                                INPUT_FNAME      STRING LEN=300                      1 --                                                                 
 __INPUT__/GWF0/DIS                                 NLAY             INTEGER                             1 --                                                                 
 __INPUT__/GWF0/DIS                                 NROW             INTEGER                             1 --                                                                 
 __INPUT__/GWF0/DIS                                 NCOL             INTEGER                             1 --                                                                 
 __INPUT__/GWF0                                     MODEL_SHAPE      INTEGER                             3 --                                                                 
 __INPUT__/GWF0                                     NCELLDIM         INTEGER                             1 --                                                                 
 __INPUT__/GWF0/DIS                                 DELR             DOUBLE                             15 --                                                                 
 __INPUT__/GWF0/DIS                                 DELC             DOUBLE                             10 --                                                                 
 __INPUT__/GWF0/DIS                                 TOP              DOUBLE                            150 --                                                                 
 __INPUT__/GWF0/DIS                                 BOTM             DOUBLE                            150 --                                                                 
 __INPUT__/GWF0/NPF                                 IPAKCB           INTEGER                             1 --                                                                 
 __INPUT__/GWF0/NPF                                 IREWET           INTEGER                             1 --                                                                 
 __INPUT__/GWF0/NPF                                 WETFCT           DOUBLE                              1 --                                                                 
 __INPUT__/GWF0/NPF                                 IWETIT           INTEGER                             1 --                                                                 
 __INPUT__/GWF0/NPF                                 IHDWET           INTEGER                             1 --                                                                 
 __INPUT__/GWF0/NPF                                 ICELLTYPE        INTEGER                           150 --                                                                 
 __INPUT__/GWF0/NPF                                 K                DOUBLE                            150 --                                                                 
 __INPUT__/GWF0/NPF                                 WETDRY           DOUBLE                            150 --                                                                 
 __INPUT__/GWF0/CHD1                                IPRPAK           INTEGER                             1 --                                                                 
 __INPUT__/GWF0/CHD1                                IPAKCB           INTEGER                             1 --                                                                 
 __INPUT__/GWF0/CHD1                                NAUX             INTEGER                             1 --                                                                 
 __INPUT__/GWF0/CHD1                                MAXBOUND         INTEGER                             1 --                                                                 
 __INPUT__/GWF0/CHD1                                IPER             INTEGER                             1 --                                                                 
 __INPUT__/GWF0/CHD1                                IONPER           INTEGER                             1 --                                                                 
 __INPUT__/GWF0/CHD1                                NBOUND           INTEGER                             1 --                                                                 
 __INPUT__/GWF0/CHD1                                NCPL             INTEGER                             1 --                                                                 
 __INPUT__/GWF0/CHD1                                AUXILIARY        STRING LEN=16                       0 --                                                                 
 __INPUT__/GWF0/CHD1                                CELLID           INTEGER                            30 --                                                                 
 __INPUT__/GWF0/CHD1                                HEAD             DOUBLE                             10 --                                                                 
 __INPUT__/GWF0/CHD1                                BOUNDNAME        STRING LEN=40                       0 --                                                                 
 __INPUT__/GWF0/CHD1                                AUXVAR           DOUBLE                              0 --                                                                 
 -----------------------------------------------------------------------------------------------------------------------------------------------------------------------------



 MEMORY MANAGER TOTAL STORAGE BY DATA TYPE, IN KILOBYTES
 -------------------------------
                    ALLOCATED   
 DATA TYPE           MEMORY     
 -------------------------------
 Character        1.8240000     
 Logical          0.0000000     
 Integer          0.83200000    
 Real             5.0800000     
 -------------------------------
 Total            7.7360000     
 Virtual          0.0000000     
 -------------------------------


IDM input_load pkg=CHD2
IDM NF90_MAX_DIMS=1024
IDM NF90_MAX_VAR_DIMS=1024
varname=IPRPAK, type=KEYWORD
varname=IPAKCB, type=KEYWORD
varname=MAXBOUND, type=INTEGER
    ALL SIMULATION MEMORY INFORMATION WILL BE WRITTEN.

 DETAILED INFORMATION ON VARIABLES STORED IN THE MEMORY MANAGER
 -----------------------------------------------------------------------------------------------------------------------------------------------------------------------------
 ORIGIN                                             VARIABLE NAME    DATA TYPE             NUMBER OF ITEMS ASSOCIATED VARIABLE                                                
 -----------------------------------------------------------------------------------------------------------------------------------------------------------------------------
 __INPUT__/SIM/NAM                                  TDIS6            STRING LEN=300                      1 --                                                                 
 __INPUT__/SIM/NAM                                  MTYPE            STRING LEN=300                      1 --                                                                 
 __INPUT__/SIM/NAM                                  MFNAME           STRING LEN=300                      1 --                                                                 
 __INPUT__/SIM/NAM                                  MNAME            STRING LEN=300                      1 --                                                                 
 __INPUT__/SIM/NAM                                  EXGTYPE          STRING LEN=300                      0 --                                                                 
 __INPUT__/SIM/NAM                                  EXGFILE          STRING LEN=300                      0 --                                                                 
 __INPUT__/SIM/NAM                                  EXGMNAMEA        STRING LEN=300                      0 --                                                                 
 __INPUT__/SIM/NAM                                  EXGMNAMEB        STRING LEN=300                      0 --                                                                 
 __INPUT__/SIM/NAM                                  SOLUTIONGROUPNUM INTEGER                             1 --                                                                 
 __INPUT__/SIM/NAM                                  SLNTYPE          STRING LEN=300                      1 --                                                                 
 __INPUT__/SIM/NAM                                  SLNFNAME         STRING LEN=300                      1 --                                                                 
 __INPUT__/SIM/NAM                                  SLNMNAMES        STRING LEN=300                      1 --                                                                 
 __INPUT__/SIM/NAM                                  CONTINUE         INTEGER                             1 --                                                                 
 __INPUT__/SIM/NAM                                  NOCHECK          INTEGER                             1 --                                                                 
 __INPUT__/SIM/NAM                                  PRMEM            STRING LEN=300                      1 --                                                                 
 __INPUT__/SIM/NAM                                  MAXERRORS        INTEGER                             1 --                                                                 
 __INPUT__/SIM/NAM                                  PRINT_INPUT      INTEGER                             1 --                                                                 
 __INPUT__/SIM/NAM                                  MXITER           INTEGER                             1 --                                                                 
 __INPUT__/SIM                                      NUMMODELS        INTEGER                             1 --                                                                 
 __INPUT__/SIM                                      NUMEXCHANGES     INTEGER                             1 --                                                                 
 __INPUT__/GWF0/NAM                                 FTYPE            STRING LEN=300                      6 --                                                                 
 __INPUT__/GWF0/NAM                                 FNAME            STRING LEN=300                      6 --                                                                 
 __INPUT__/GWF0/NAM                                 PNAME            STRING LEN=300                      6 --                                                                 
 __INPUT__/GWF0                                     PKGTYPES         STRING LEN=7                        0 --                                                                 
 __INPUT__/GWF0                                     PKGNAMES         STRING LEN=16                       0 --                                                                 
 __INPUT__/GWF0                                     MEMPATHS         STRING LEN=50                       0 --                                                                 
 __INPUT__/GWF0                                     INUNITS          INTEGER                             0 --                                                                 
 __INPUT__/GWF0/DIS                                 INPUT_FNAME      STRING LEN=300                      1 --                                                                 
 __INPUT__/GWF0/NPF                                 INPUT_FNAME      STRING LEN=300                      1 --                                                                 
 __INPUT__/GWF0/CHD1                                INPUT_FNAME      STRING LEN=300                      1 --                                                                 
 __INPUT__/GWF0/CHD2                                INPUT_FNAME      STRING LEN=300                      1 --                                                                 
 __INPUT__/GWF0/DIS                                 NLAY             INTEGER                             1 --                                                                 
 __INPUT__/GWF0/DIS                                 NROW             INTEGER                             1 --                                                                 
 __INPUT__/GWF0/DIS                                 NCOL             INTEGER                             1 --                                                                 
 __INPUT__/GWF0                                     MODEL_SHAPE      INTEGER                             3 --                                                                 
 __INPUT__/GWF0                                     NCELLDIM         INTEGER                             1 --                                                                 
 __INPUT__/GWF0/DIS                                 DELR             DOUBLE                             15 --                                                                 
 __INPUT__/GWF0/DIS                                 DELC             DOUBLE                             10 --                                                                 
 __INPUT__/GWF0/DIS                                 TOP              DOUBLE                            150 --                                                                 
 __INPUT__/GWF0/DIS                                 BOTM             DOUBLE                            150 --                                                                 
 __INPUT__/GWF0/NPF                                 IPAKCB           INTEGER                             1 --                                                                 
 __INPUT__/GWF0/NPF                                 IREWET           INTEGER                             1 --                                                                 
 __INPUT__/GWF0/NPF                                 WETFCT           DOUBLE                              1 --                                                                 
 __INPUT__/GWF0/NPF                                 IWETIT           INTEGER                             1 --                                                                 
 __INPUT__/GWF0/NPF                                 IHDWET           INTEGER                             1 --                                                                 
 __INPUT__/GWF0/NPF                                 ICELLTYPE        INTEGER                           150 --                                                                 
 __INPUT__/GWF0/NPF                                 K                DOUBLE                            150 --                                                                 
 __INPUT__/GWF0/NPF                                 WETDRY           DOUBLE                            150 --                                                                 
 __INPUT__/GWF0/CHD1                                IPRPAK           INTEGER                             1 --                                                                 
 __INPUT__/GWF0/CHD1                                IPAKCB           INTEGER                             1 --                                                                 
 __INPUT__/GWF0/CHD1                                NAUX             INTEGER                             1 --                                                                 
 __INPUT__/GWF0/CHD1                                MAXBOUND         INTEGER                             1 --                                                                 
 __INPUT__/GWF0/CHD1                                IPER             INTEGER                             1 --                                                                 
 __INPUT__/GWF0/CHD1                                IONPER           INTEGER                             1 --                                                                 
 __INPUT__/GWF0/CHD1                                NBOUND           INTEGER                             1 --                                                                 
 __INPUT__/GWF0/CHD1                                NCPL             INTEGER                             1 --                                                                 
 __INPUT__/GWF0/CHD1                                AUXILIARY        STRING LEN=16                       0 --                                                                 
 __INPUT__/GWF0/CHD1                                CELLID           INTEGER                            30 --                                                                 
 __INPUT__/GWF0/CHD1                                HEAD             DOUBLE                             10 --                                                                 
 __INPUT__/GWF0/CHD1                                BOUNDNAME        STRING LEN=40                       0 --                                                                 
 __INPUT__/GWF0/CHD1                                AUXVAR           DOUBLE                              0 --                                                                 
 __INPUT__/GWF0/CHD2                                IPRPAK           INTEGER                             1 --                                                                 
 __INPUT__/GWF0/CHD2                                IPAKCB           INTEGER                             1 --                                                                 
 __INPUT__/GWF0/CHD2                                NAUX             INTEGER                             1 --                                                                 
 __INPUT__/GWF0/CHD2                                MAXBOUND         INTEGER                             1 --                                                                 
 __INPUT__/GWF0/CHD2                                IPER             INTEGER                             1 --                                                                 
 __INPUT__/GWF0/CHD2                                IONPER           INTEGER                             1 --                                                                 
 __INPUT__/GWF0/CHD2                                NBOUND           INTEGER                             1 --                                                                 
 __INPUT__/GWF0/CHD2                                NCPL             INTEGER                             1 --                                                                 
 __INPUT__/GWF0/CHD2                                AUXILIARY        STRING LEN=16                       0 --                                                                 
 __INPUT__/GWF0/CHD2                                CELLID           INTEGER                            30 --                                                                 
 __INPUT__/GWF0/CHD2                                HEAD             DOUBLE                             10 --                                                                 
 __INPUT__/GWF0/CHD2                                BOUNDNAME        STRING LEN=40                       0 --                                                                 
 __INPUT__/GWF0/CHD2                                AUXVAR           DOUBLE                              0 --                                                                 
 -----------------------------------------------------------------------------------------------------------------------------------------------------------------------------



 MEMORY MANAGER TOTAL STORAGE BY DATA TYPE, IN KILOBYTES
 -------------------------------
                    ALLOCATED   
 DATA TYPE           MEMORY     
 -------------------------------
 Character        1.8240000     
 Logical          0.0000000     
 Integer          0.98400000    
 Real             5.1600000     
 -------------------------------
 Total            7.9680000     
 Virtual          0.0000000     
 -------------------------------



 READING SIMULATION OPTIONS
    MAXIMUM NUMBER OF ERRORS THAT WILL BE STORED IS 1000
 END OF SIMULATION OPTIONS

 READING SIMULATION TIMING

 OPENED npf02_hreweta.tdis
 FILE TYPE:TDIS   UNIT 1005   STATUS:OLD                 
 FORMAT:FORMATTED              ACCESS:SEQUENTIAL          
 ACTION:READ                


 TDIS -- TEMPORAL DISCRETIZATION PACKAGE,
 VERSION 1 : 11/13/2014 - INPUT READ FROM UNIT 1005
 # File generated by Flopy version 3.5.0.dev0 on 10/30/2023 at 09:20:40.
 PROCESSING TDIS OPTIONS
    SIMULATION TIME UNIT IS DAYS
 END OF TDIS OPTIONS
 PROCESSING TDIS DIMENSIONS
    2 STRESS PERIOD(S) IN SIMULATION
 END OF TDIS DIMENSIONS
 PROCESSING TDIS PERIODDATA


 STRESS PERIOD     LENGTH       TIME STEPS     MULTIPLIER FOR DELT
 ----------------------------------------------------------------------------
        1         1.000000          1                    1.000
        2         1.000000          1                    1.000
 END OF TDIS PERIODDATA
 END OF SIMULATION TIMING

 READING SIMULATION MODELS
    GWF6 model 1 will be created
 END OF SIMULATION MODELS

 READING SIMULATION EXCHANGES
 END OF SIMULATION EXCHANGES

 READING SOLUTIONGROUP

 Creating solution: SLN_1           

 OPENED npf02_hreweta.ims
 FILE TYPE:IMS   UNIT 1007   STATUS:OLD                 
 FORMAT:FORMATTED              ACCESS:SEQUENTIAL          
 ACTION:READ                

 END OF SOLUTIONGROUP

PROCESSING MODEL CONNECTIONS

 IMS -- ITERATIVE MODEL SOLUTION PACKAGE, VERSION 6, 4/28/2017
         INPUT READ FROM UNIT 1007
 # File generated by Flopy version 3.5.0.dev0 on 10/30/2023 at 09:20:40.

 PROCESSING IMS OPTIONS

 OPENED npf02_hreweta.outer.ims.csv
 FILE TYPE:CSV_OUTER_OUTPUT   UNIT 1011   STATUS:REPLACE             
 FORMAT:FORMATTED              ACCESS:SEQUENTIAL          
 ACTION:READWRITE           

    CSV OUTPUT WILL BE SAVED TO FILE: npf02_hreweta.outer.ims.csv
    OPENED ON UNIT:    1011

 OPENED npf02_hreweta.inner.ims.csv
 FILE TYPE:CSV_INNER_OUTPUT   UNIT 1012   STATUS:REPLACE             
 FORMAT:FORMATTED              ACCESS:SEQUENTIAL          
 ACTION:READWRITE           

    CSV OUTPUT WILL BE SAVED TO FILE: npf02_hreweta.inner.ims.csv
    OPENED ON UNIT:    1012
 END OF IMS OPTIONS

 PROCESSING IMS NONLINEAR
 END OF IMS NONLINEAR DATA
 ***UNDER-RELAXATION WILL NOT BE USED***


 PROCESSING LINEAR DATA
 END OF LINEAR DATA
 ***IMS LINEAR SOLVER WILL BE USED***

 IMSLINEAR -- UNSTRUCTURED LINEAR SOLUTION PACKAGE, VERSION 8, 04/28/2017
 A symmetric matrix will be solved

 OUTER ITERATION CONVERGENCE CRITERION    (DVCLOSE) =    0.100000E+00
 MAXIMUM NUMBER OF OUTER ITERATIONS        (MXITER) = 1000
 SOLVER PRINTOUT INDEX                     (IPRIMS) = 2
 NONLINEAR ITERATION METHOD            (NONLINMETH) = 0
 LINEAR SOLUTION METHOD                   (LINMETH) = 1

       SOLUTION BY THE        CONJUGATE-GRADIENT       METHOD
 ------------------------------------------------------------------
 MAXIMUM OF 1000 CALLS OF SOLUTION ROUTINE
 MAXIMUM OF 100 INTERNAL ITERATIONS PER CALL TO SOLUTION ROUTINE
 LINEAR ACCELERATION METHOD            = CG        
 MATRIX PRECONDITIONING TYPE           = MOD. INCOMPLETE LU  
 MATRIX SCALING APPROACH               = NO SCALING          
 MATRIX REORDERING APPROACH            = ORIGINAL ORDERING        
 NUMBER OF ORTHOGONALIZATIONS          = 0
 HEAD CHANGE CRITERION FOR CLOSURE     =    0.10000E+00
 RESIDUAL CHANGE CRITERION FOR CLOSURE =    0.10000E-01
 RESIDUAL CONVERGENCE OPTION           = 0
 RESIDUAL CONVERGENCE NORM             = INFINITY NORM   
 RELAXATION FACTOR                     =    0.10000E+01




    Solving:  Stress period:     1    Time step:     1

1
                            STRESS PERIOD NO. 1, LENGTH =   1.000000    
                            -----------------------------------------------
                            NUMBER OF TIME STEPS = 1
                            MULTIPLIER FOR DELT =     1.000
IDM inlist_rp iiper=1
IDM RP LIST kper=1
IDM RP LIST varname=CELLID, type=INTEGER1D
Found INODATA CELLIDsize m=3size n=10
CELLID FIRST SET nbound=10
IDM RP LIST varname=HEAD, type=DOUBLE
IDM inlist_rp iiper=1
IDM RP LIST kper=1
IDM RP LIST varname=CELLID, type=INTEGER1D
Found INODATA CELLIDsize m=3size n=10
CELLID FIRST SET nbound=10
IDM RP LIST varname=HEAD, type=DOUBLE
                            INITIAL TIME STEP SIZE =   1.000000    

 SLN_1 OUTER ITERATION SUMMARY
 ----------------------------------------------------------------------------------------------------------
                                OUTER      INNER                    STEP   MAXIMUM CHANGE MODEL-(CELLID) OR
 OUTER ITERATION STEP       ITERATION  ITERATION  MAXIMUM CHANGE SUCCESS             MODEL-PACKAGE-(NUMBER)
 ----------------------------------------------------------------------------------------------------------
 Model                              1         13       134.48276                             1_GWF-(1,10,2)
 Model                              2         14       43.708855                             1_GWF-(1,1,11)
 Model                              3         14      -8.4140618                              1_GWF-(1,1,9)
 Model                              4         12      -3.0395632                             1_GWF-(1,1,13)
 Model                              5         11      0.45863372                              1_GWF-(1,2,9)
 Model                              6         10      0.16453594                             1_GWF-(1,3,12)
 Model                              7          9 -2.50280148E-02       *                      1_GWF-(1,3,9)
 ----------------------------------------------------------------------------------------------------------


 7 CALLS TO NUMERICAL SOLUTION IN TIME STEP 1 STRESS PERIOD 1
 83 TOTAL ITERATIONS

 SLN_1 INNER ITERATION SUMMARY
 --------------------------------------------------------------------------------------------------------------------------------------
      TOTAL      OUTER      INNER                                                            MAXIMUM                                   
  ITERATION  ITERATION  ITERATION  MAXIMUM CHANGE      MAXIMUM CHANGE MODEL-(CELLID)        RESIDUAL    MAXIMUM RESIDUAL MODEL-(CELLID)
 --------------------------------------------------------------------------------------------------------------------------------------
          1          1          1       132.58403                     1_GWF-(1,10,2)       1491.6296                    1_GWF-(1,10,12)
          2          1          2       31.029958                      1_GWF-(1,1,9)      -815.63990                     1_GWF-(1,1,12)
          3          1          3      -12.212677                     1_GWF-(1,10,7)      -462.40850                     1_GWF-(1,1,14)
          4          1          4      -2.9500675                     1_GWF-(1,10,4)      -146.41039                     1_GWF-(1,1,14)
          5          1          5      0.96711845                     1_GWF-(1,2,10)      -44.804306                     1_GWF-(1,2,12)
          6          1          6      0.32737920                     1_GWF-(1,2,12)       14.167756                     1_GWF-(1,10,2)
          7          1          7      0.11039513                      1_GWF-(1,4,9)       7.3195357                     1_GWF-(1,10,2)
          8          1          8 -2.35236078E-02                      1_GWF-(1,1,4)       1.8401728                     1_GWF-(1,10,2)
          9          1          9  1.03060542E-02                      1_GWF-(1,4,7)      0.57360373                     1_GWF-(1,10,2)
         10          1         10 -2.46969711E-03                    1_GWF-(1,10,13)      0.12222419                     1_GWF-(1,10,2)
         11          1         11  9.37818474E-04                     1_GWF-(1,8,11)  4.96599844E-02                      1_GWF-(1,7,8)
         12          1         12 -2.03964624E-04                      1_GWF-(1,7,8)  1.17759869E-02                      1_GWF-(1,2,4)
         13          1         13 -5.56447829E-05                      1_GWF-(1,2,4)  3.29973075E-03                      1_GWF-(1,6,9)
         14          2          1       37.540029                     1_GWF-(1,3,10)       5282.9250                      1_GWF-(1,1,5)
         15          2          2       18.201822                     1_GWF-(1,1,12)      -3417.1980                     1_GWF-(1,10,5)
         16          2          3       6.9001340                     1_GWF-(1,1,14)      -2258.8339                     1_GWF-(1,10,3)
         17          2          4       2.2590026                     1_GWF-(1,8,10)      -902.90298                     1_GWF-(1,10,2)
         18          2          5      0.85619376                     1_GWF-(1,3,12)      -545.18192                     1_GWF-(1,10,2)
         19          2          6     -0.40664137                     1_GWF-(1,3,11)      -207.00577                     1_GWF-(1,10,2)
         20          2          7      0.10320968                     1_GWF-(1,5,13)      -57.709167                      1_GWF-(1,9,4)
         21          2          8 -4.29648006E-02                     1_GWF-(1,2,12)      -22.986114                      1_GWF-(1,9,4)
         22          2          9  1.26910133E-02                     1_GWF-(1,3,13)      -5.7317512                      1_GWF-(1,8,6)
         23          2         10 -2.07388535E-03                     1_GWF-(1,1,12)     -0.97792198                      1_GWF-(1,8,5)
         24          2         11  7.71858599E-04                     1_GWF-(1,2,13)      0.37191505                      1_GWF-(1,1,3)
         25          2         12 -1.77862201E-04                     1_GWF-(1,1,12)      0.11554603                      1_GWF-(1,1,3)
         26          2         13  7.02604886E-05                    1_GWF-(1,10,12)  2.53283114E-02                      1_GWF-(1,7,5)
         27          2         14  2.47813874E-05                     1_GWF-(1,2,13) -6.97567131E-03                      1_GWF-(1,6,8)
         28          3          1      -9.1250098                     1_GWF-(1,7,10)      -3604.7090                    1_GWF-(1,10,14)
         29          3          2      -4.3261561                     1_GWF-(1,1,11)       2323.6452                     1_GWF-(1,1,13)
         30          3          3       3.0227758                    1_GWF-(1,10,14)      -841.09908                     1_GWF-(1,2,13)
         31          3          4       1.6056812                    1_GWF-(1,10,14)       365.81025                     1_GWF-(1,2,12)
         32          3          5      0.37736810                    1_GWF-(1,10,12)      -128.22647                     1_GWF-(1,9,14)
         33          3          6      0.10603675                     1_GWF-(1,3,11)      -71.180224                     1_GWF-(1,9,14)
         34          3          7  6.67043617E-02                     1_GWF-(1,9,14)      -18.871401                     1_GWF-(1,2,11)
         35          3          8  1.59600788E-02                     1_GWF-(1,2,11)       6.1328467                     1_GWF-(1,3,11)
         36          3          9 -4.44696477E-03                     1_GWF-(1,4,13)      -2.0201798                    1_GWF-(1,10,13)
         37          3         10  1.37161678E-03                    1_GWF-(1,10,13)     -0.58635828                    1_GWF-(1,10,13)
         38          3         11  3.64201442E-04                     1_GWF-(1,7,14)      0.13817402                      1_GWF-(1,3,7)
         39          3         12  9.01144689E-05                    1_GWF-(1,10,13)  5.55414565E-02                      1_GWF-(1,2,2)
         40          3         13 -2.94771845E-05                     1_GWF-(1,1,14)  1.13925122E-02                     1_GWF-(1,2,13)
         41          3         14 -7.19606697E-06                     1_GWF-(1,2,13) -2.96816898E-03                      1_GWF-(1,3,3)
         42          4          1      -2.4143881                     1_GWF-(1,4,12)       871.06319                     1_GWF-(1,1,13)
         43          4          2      -1.1896468                     1_GWF-(1,1,13)      -324.01692                     1_GWF-(1,1,10)
         44          4          3     -0.44644213                     1_GWF-(1,10,9)       186.67267                     1_GWF-(1,2,11)
         45          4          4     -0.20098468                     1_GWF-(1,5,14)       76.958285                     1_GWF-(1,2,12)
         46          4          5 -5.80056591E-02                     1_GWF-(1,8,14)      -20.549390                     1_GWF-(1,2,11)
         47          4          6 -1.56969924E-02                     1_GWF-(1,9,11)       6.4857054                     1_GWF-(1,3,11)
         48          4          7  5.20621142E-03                     1_GWF-(1,5,10)       2.5514552                    1_GWF-(1,10,13)
         49          4          8 -2.07278074E-03                     1_GWF-(1,8,13)      0.96669073                     1_GWF-(1,10,2)
         50          4          9 -8.20306143E-04                      1_GWF-(1,8,8)     -0.49428828                     1_GWF-(1,3,10)
         51          4         10  1.96392716E-04                      1_GWF-(1,5,6)     -0.11483939                      1_GWF-(1,4,8)
         52          4         11 -5.22262263E-05                     1_GWF-(1,5,12) -3.80425015E-02                      1_GWF-(1,2,3)
         53          4         12 -1.86645969E-05                     1_GWF-(1,3,13) -9.20788261E-03                      1_GWF-(1,3,3)
         54          5          1      0.48722384                     1_GWF-(1,8,10)      -160.18468                     1_GWF-(1,1,11)
         55          5          2      0.24143580                     1_GWF-(1,1,11)      -100.35210                     1_GWF-(1,1,13)
         56          5          3     -0.16309448                    1_GWF-(1,10,13)      -33.853191                      1_GWF-(1,2,9)
         57          5          4 -7.43845556E-02                    1_GWF-(1,10,13)      -17.178652                     1_GWF-(1,2,11)
         58          5          5 -1.86101826E-02                    1_GWF-(1,10,11)       6.8682638                     1_GWF-(1,9,14)
         59          5          6 -5.07723582E-03                     1_GWF-(1,3,10)       3.2997725                     1_GWF-(1,9,14)
         60          5          7 -3.23810565E-03                     1_GWF-(1,9,14)      0.96859618                     1_GWF-(1,2,11)
         61          5          8 -8.23570318E-04                     1_GWF-(1,2,11)     -0.26493391                     1_GWF-(1,3,11)
         62          5          9  2.14668780E-04                     1_GWF-(1,4,13)      0.10904161                    1_GWF-(1,10,13)
         63          5         10 -7.78776358E-05                    1_GWF-(1,10,13)  2.58465211E-02                    1_GWF-(1,10,13)
         64          5         11 -1.69368181E-05                     1_GWF-(1,7,14)  7.07044844E-03                      1_GWF-(1,5,2)
         65          6          1      0.13047618                     1_GWF-(1,4,12)      -43.360723                     1_GWF-(1,1,13)
         66          6          2  6.35373862E-02                     1_GWF-(1,1,13)       18.481533                     1_GWF-(1,1,10)
         67          6          3  2.42355570E-02                     1_GWF-(1,10,9)      -9.8843232                     1_GWF-(1,2,11)
         68          6          4  1.04478550E-02                     1_GWF-(1,5,14)      -3.7808295                     1_GWF-(1,2,12)
         69          6          5  3.00961988E-03                     1_GWF-(1,8,14)       1.2341571                     1_GWF-(1,2,10)
         70          6          6  8.66491607E-04                     1_GWF-(1,9,11)      0.39200811                     1_GWF-(1,2,11)
         71          6          7  3.40380852E-04                     1_GWF-(1,5,13)      0.15694727                     1_GWF-(1,2,11)
         72          6          8  1.30704428E-04                     1_GWF-(1,8,13) -5.10393529E-02                      1_GWF-(1,2,7)
         73          6          9  4.65373778E-05                      1_GWF-(1,8,8)  2.69060719E-02                     1_GWF-(1,3,10)
         74          6         10 -1.12039109E-05                      1_GWF-(1,5,6) -5.91805717E-03                      1_GWF-(1,3,5)
         75          7          1 -2.64493796E-02                     1_GWF-(1,8,10)       9.0019667                     1_GWF-(1,1,11)
         76          7          2 -1.32546849E-02                     1_GWF-(1,1,11)       5.4278359                     1_GWF-(1,1,12)
         77          7          3  8.96524471E-03                    1_GWF-(1,10,13)       1.8884340                      1_GWF-(1,2,9)
         78          7          4  3.95160554E-03                    1_GWF-(1,10,13)      0.90299856                     1_GWF-(1,2,11)
         79          7          5  9.98543392E-04                    1_GWF-(1,10,11)     -0.35868346                     1_GWF-(1,9,14)
         80          7          6  2.59978314E-04                     1_GWF-(1,3,10)     -0.16482565                     1_GWF-(1,9,14)
         81          7          7  1.66975417E-04                     1_GWF-(1,9,14) -5.20316281E-02                     1_GWF-(1,2,11)
         82          7          8  4.54015381E-05                     1_GWF-(1,2,11)  1.41162490E-02                     1_GWF-(1,3,11)
         83          7          9 -1.18355499E-05                     1_GWF-(1,4,13) -6.12347873E-03                    1_GWF-(1,10,13)
 --------------------------------------------------------------------------------------------------------------------------------------



    Solving:  Stress period:     2    Time step:     1

1
                            STRESS PERIOD NO. 2, LENGTH =   1.000000    
                            -----------------------------------------------
                            NUMBER OF TIME STEPS = 1
                            MULTIPLIER FOR DELT =     1.000
IDM inlist_rp iiper=2
IDM RP LIST kper=2
IDM RP LIST varname=CELLID, type=INTEGER1D
Found INODATA CELLIDsize m=3size n=10
CELLID FIRST SET nbound=10
IDM RP LIST varname=HEAD, type=DOUBLE
                            INITIAL TIME STEP SIZE =   1.000000    

 SLN_1 OUTER ITERATION SUMMARY
 ----------------------------------------------------------------------------------------------------------
                                OUTER      INNER                    STEP   MAXIMUM CHANGE MODEL-(CELLID) OR
 OUTER ITERATION STEP       ITERATION  ITERATION  MAXIMUM CHANGE SUCCESS             MODEL-PACKAGE-(NUMBER)
 ----------------------------------------------------------------------------------------------------------
 Model                              1         14      -73.373168                             1_GWF-(1,10,2)
 Model                              2         12      -6.5058946                             1_GWF-(1,1,14)
 Model                              3         11       1.4731404                             1_GWF-(1,7,10)
 Model                              4         10      0.31046228                             1_GWF-(1,3,13)
 Model                              5          9     -0.10096173                             1_GWF-(1,1,11)
 Model                              6          8 -1.54404485E-02       *                     1_GWF-(1,5,13)
 ----------------------------------------------------------------------------------------------------------


 6 CALLS TO NUMERICAL SOLUTION IN TIME STEP 1 STRESS PERIOD 2
 64 TOTAL ITERATIONS

 SLN_1 INNER ITERATION SUMMARY
 --------------------------------------------------------------------------------------------------------------------------------------
      TOTAL      OUTER      INNER                                                            MAXIMUM                                   
  ITERATION  ITERATION  ITERATION  MAXIMUM CHANGE      MAXIMUM CHANGE MODEL-(CELLID)        RESIDUAL    MAXIMUM RESIDUAL MODEL-(CELLID)
 --------------------------------------------------------------------------------------------------------------------------------------
          1          1          1      -70.516459                     1_GWF-(1,10,2)       8275.0425                      1_GWF-(1,1,7)
          2          1          2      -24.734832                     1_GWF-(1,1,10)       4402.2133                     1_GWF-(1,1,12)
          3          1          3      -12.673230                     1_GWF-(1,1,13)       1901.1507                     1_GWF-(1,1,14)
          4          1          4      -2.9750805                     1_GWF-(1,1,14)      -717.40430                     1_GWF-(1,10,2)
          5          1          5     -0.61045833                     1_GWF-(1,3,12)      -303.63999                     1_GWF-(1,10,2)
          6          1          6     -0.23248936                      1_GWF-(1,4,9)      -167.51372                     1_GWF-(1,10,2)
          7          1          7 -8.88490717E-02                     1_GWF-(1,2,13)      -41.050917                      1_GWF-(1,9,5)
          8          1          8 -2.01456629E-02                    1_GWF-(1,10,12)      -11.970610                      1_GWF-(1,9,4)
          9          1          9  5.47228294E-03                      1_GWF-(1,8,9)      -4.0762506                      1_GWF-(1,9,4)
         10          1         10 -1.48942026E-03                     1_GWF-(1,9,10)       1.0013990                      1_GWF-(1,8,4)
         11          1         11 -4.64077974E-04                     1_GWF-(1,8,12)     -0.42612774                      1_GWF-(1,8,5)
         12          1         12 -1.12867312E-04                      1_GWF-(1,3,6) -8.33579635E-02                      1_GWF-(1,7,7)
         13          1         13 -2.59612716E-05                      1_GWF-(1,2,8)  3.00119382E-02                      1_GWF-(1,7,5)
         14          1         14 -8.84449953E-06                    1_GWF-(1,10,13) -5.43351558E-03                      1_GWF-(1,7,6)
         15          2          1      -5.8930365                     1_GWF-(1,1,12)      -462.34201                      1_GWF-(1,1,6)
         16          2          2      -1.7283133                    1_GWF-(1,10,11)      -265.76177                     1_GWF-(1,1,11)
         17          2          3     -0.79526832                     1_GWF-(1,10,7)       120.38669                     1_GWF-(1,10,4)
[...]
 SLN_1                                              WSAVE            DOUBLE                              0 --                                                                 
 SLN_1                                              HCHOLD           DOUBLE                              0 --                                                                 
 SLN_1                                              DEOLD            DOUBLE                              0 --                                                                 
 SLN_1                                              CONVMODSTART     INTEGER                             2 --                                                                 
 TMPSLN_1                                           CONVNMOD         INTEGER                             1 --                                                                 
 TMPSLN_1                                           NITERMAX         INTEGER                             1 --                                                                 
 TMPSLN_1                                           ITINNER          INTEGER                        100000 --                                                                 
 TMPSLN_1                                           LOCDV            INTEGER                             1 --                                                                 
 TMPSLN_1                                           DVMAX            DOUBLE                              1 --                                                                 
 TMPSLN_1                                           LOCDR            INTEGER                             1 --                                                                 
 TMPSLN_1                                           DRMAX            DOUBLE                              1 --                                                                 
 TMPSLN_1                                           CONVDVMAX        DOUBLE                         100000 --                                                                 
 TMPSLN_1                                           CONVLOCDV        INTEGER                        100000 --                                                                 
 TMPSLN_1                                           CONVDRMAX        DOUBLE                         100000 --                                                                 
 TMPSLN_1                                           CONVLOCDR        INTEGER                        100000 --                                                                 
 GWF0                                               X                DOUBLE                            150 SLN_1/X                                                            
 GWF0                                               RHS              DOUBLE                            150 SLN_1/RHS                                                          
 GWF0                                               IBOUND           INTEGER                           150 SLN_1/IBOUND                                                       
 SLN_1                                              NROW             INTEGER                             1 --                                                                 
 SLN_1                                              NCOL             INTEGER                             1 --                                                                 
 SLN_1                                              NJA              INTEGER                             1 --                                                                 
 SLN_1                                              IA               INTEGER                           151 --                                                                 
 SLN_1                                              JA               INTEGER                           700 --                                                                 
 SLN_1                                              AMAT             DOUBLE                            700 --                                                                 
 GWF0/IC                                            STRT             DOUBLE                            150 --                                                                 
 GWF0/CHD1                                          NODELIST         INTEGER                            10 --                                                                 
 GWF0/CHD1                                          NOUPDATEAUXVAR   INTEGER                             0 --                                                                 
 GWF0/CHD1                                          BOUND            DOUBLE                             10 --                                                                 
 GWF0/CHD1                                          CONDINPUT        DOUBLE                              0 --                                                                 
 GWF0/CHD1                                          HCOF             DOUBLE                             10 --                                                                 
 GWF0/CHD1                                          RHS              DOUBLE                             10 --                                                                 
 GWF0/CHD1                                          SIMVALS          DOUBLE                             10 --                                                                 
 GWF0/CHD1                                          SIMTOMVR         DOUBLE                              0 --                                                                 
 GWF0/CHD1                                          AUXVAR           DOUBLE                              0 --                                                                 
 GWF0/CHD1                                          BOUNDNAME        STRING LEN=40                       0 --                                                                 
 GWF0/CHD1                                          BOUNDNAME_CST    STRING LEN=40                       0 --                                                                 
 GWF0/CHD1                                          CELLID           INTEGER                            30 __INPUT__/GWF0/CHD1/CELLID                                         
 GWF0/CHD1                                          BOUNDNAME_IDM    STRING LEN=40                       0 __INPUT__/GWF0/CHD1/BOUNDNAME                                      
 GWF0/CHD1                                          AUXVAR_IDM       DOUBLE                              0 __INPUT__/GWF0/CHD1/AUXVAR                                         
 GWF0/CHD1                                          RATECHDIN        DOUBLE                             10 --                                                                 
 GWF0/CHD1                                          RATECHDOUT       DOUBLE                             10 --                                                                 
 GWF0/CHD1                                          HEAD             DOUBLE                             10 __INPUT__/GWF0/CHD1/HEAD                                           
 GWF0/CHD2                                          NODELIST         INTEGER                            10 --                                                                 
 GWF0/CHD2                                          NOUPDATEAUXVAR   INTEGER                             0 --                                                                 
 GWF0/CHD2                                          BOUND            DOUBLE                             10 --                                                                 
 GWF0/CHD2                                          CONDINPUT        DOUBLE                              0 --                                                                 
 GWF0/CHD2                                          HCOF             DOUBLE                             10 --                                                                 
 GWF0/CHD2                                          RHS              DOUBLE                             10 --                                                                 
 GWF0/CHD2                                          SIMVALS          DOUBLE                             10 --                                                                 
 GWF0/CHD2                                          SIMTOMVR         DOUBLE                              0 --                                                                 
 GWF0/CHD2                                          AUXVAR           DOUBLE                              0 --                                                                 
 GWF0/CHD2                                          BOUNDNAME        STRING LEN=40                       0 --                                                                 
 GWF0/CHD2                                          BOUNDNAME_CST    STRING LEN=40                       0 --                                                                 
 GWF0/CHD2                                          CELLID           INTEGER                            30 __INPUT__/GWF0/CHD2/CELLID                                         
 GWF0/CHD2                                          BOUNDNAME_IDM    STRING LEN=40                       0 __INPUT__/GWF0/CHD2/BOUNDNAME                                      
 GWF0/CHD2                                          AUXVAR_IDM       DOUBLE                              0 __INPUT__/GWF0/CHD2/AUXVAR                                         
 GWF0/CHD2                                          RATECHDIN        DOUBLE                             10 --                                                                 
 GWF0/CHD2                                          RATECHDOUT       DOUBLE                             10 --                                                                 
 GWF0/CHD2                                          HEAD             DOUBLE                             10 __INPUT__/GWF0/CHD2/HEAD                                           
 SLN_1/IMSLINEAR                                    DVCLOSE          DOUBLE                              1 --                                                                 
 SLN_1/IMSLINEAR                                    RCLOSE           DOUBLE                              1 --                                                                 
 SLN_1/IMSLINEAR                                    ICNVGOPT         INTEGER                             1 --                                                                 
 SLN_1/IMSLINEAR                                    ITER1            INTEGER                             1 --                                                                 
 SLN_1/IMSLINEAR                                    ILINMETH         INTEGER                             1 --                                                                 
 SLN_1/IMSLINEAR                                    ISCL             INTEGER                             1 --                                                                 
 SLN_1/IMSLINEAR                                    IORD             INTEGER                             1 --                                                                 
 SLN_1/IMSLINEAR                                    NORTH            INTEGER                             1 --                                                                 
 SLN_1/IMSLINEAR                                    RELAX            DOUBLE                              1 --                                                                 
 SLN_1/IMSLINEAR                                    LEVEL            INTEGER                             1 --                                                                 
 SLN_1/IMSLINEAR                                    DROPTOL          DOUBLE                              1 --                                                                 
 SLN_1/IMSLINEAR                                    IDFPARAM         INTEGER                             1 --                                                                 
 SLN_1/IMSLINEAR                                    NJA              INTEGER                             1 --                                                                 
 SLN_1/IMSLINEAR                                    IOUT             INTEGER                             1 --                                                                 
 SLN_1/IMSLINEAR                                    IPC              INTEGER                             1 --                                                                 
 SLN_1/IMSLINEAR                                    IACPC            INTEGER                             1 --                                                                 
 SLN_1/IMSLINEAR                                    NITERC           INTEGER                             1 --                                                                 
 SLN_1/IMSLINEAR                                    NIABCGS          INTEGER                             1 --                                                                 
 SLN_1/IMSLINEAR                                    NIAPC            INTEGER                             1 --                                                                 
 SLN_1/IMSLINEAR                                    NJAPC            INTEGER                             1 --                                                                 
 SLN_1/IMSLINEAR                                    EPFACT           DOUBLE                              1 --                                                                 
 SLN_1/IMSLINEAR                                    L2NORM0          DOUBLE                              1 --                                                                 
 SLN_1/IMSLINEAR                                    NJLU             INTEGER                             1 --                                                                 
 SLN_1/IMSLINEAR                                    NJW              INTEGER                             1 --                                                                 
 SLN_1/IMSLINEAR                                    NWLU             INTEGER                             1 --                                                                 
 SLN_1/IMSLINEAR                                    DSCALE           DOUBLE                              1 --                                                                 
 SLN_1/IMSLINEAR                                    DSCALE2          DOUBLE                              1 --                                                                 
 SLN_1/IMSLINEAR                                    IAPC             INTEGER                           151 --                                                                 
 SLN_1/IMSLINEAR                                    JAPC             INTEGER                           700 --                                                                 
 SLN_1/IMSLINEAR                                    APC              DOUBLE                            700 --                                                                 
 SLN_1/IMSLINEAR                                    IW               INTEGER                           150 --                                                                 
 SLN_1/IMSLINEAR                                    W                DOUBLE                            150 --                                                                 
 SLN_1/IMSLINEAR                                    JLU              INTEGER                             1 --                                                                 
 SLN_1/IMSLINEAR                                    JW               INTEGER                             1 --                                                                 
 SLN_1/IMSLINEAR                                    WLU              DOUBLE                              1 --                                                                 
 SLN_1/IMSLINEAR                                    LORDER           INTEGER                             1 --                                                                 
 SLN_1/IMSLINEAR                                    IORDER           INTEGER                             1 --                                                                 
 SLN_1/IMSLINEAR                                    IARO             INTEGER                             2 --                                                                 
 SLN_1/IMSLINEAR                                    JARO             INTEGER                             1 --                                                                 
 SLN_1/IMSLINEAR                                    ARO              DOUBLE                              1 --                                                                 
 SLN_1/IMSLINEAR                                    ID               INTEGER                           150 --                                                                 
 SLN_1/IMSLINEAR                                    D                DOUBLE                            150 --                                                                 
 SLN_1/IMSLINEAR                                    P                DOUBLE                            150 --                                                                 
 SLN_1/IMSLINEAR                                    Q                DOUBLE                            150 --                                                                 
 SLN_1/IMSLINEAR                                    Z                DOUBLE                            150 --                                                                 
 SLN_1/IMSLINEAR                                    T                DOUBLE                              1 --                                                                 
 SLN_1/IMSLINEAR                                    V                DOUBLE                              1 --                                                                 
 SLN_1/IMSLINEAR                                    DHAT             DOUBLE                              1 --                                                                 
 SLN_1/IMSLINEAR                                    PHAT             DOUBLE                              1 --                                                                 
 SLN_1/IMSLINEAR                                    QHAT             DOUBLE                              1 --                                                                 
 -----------------------------------------------------------------------------------------------------------------------------------------------------------------------------



 MEMORY MANAGER TOTAL STORAGE BY DATA TYPE, IN MEGABYTES
 -------------------------------
                    ALLOCATED   
 DATA TYPE           MEMORY     
 -------------------------------
 Character        6.76600000E-03
 Logical          4.00000000E-05
 Integer          1.2392440     
 Real             1.6712400     
 -------------------------------
 Total            2.9172900     
 Virtual          0.0000000     
 -------------------------------



 Run end date and time (yyyy/mm/dd hh:mm:ss): 2023/10/30  9:20:40
 Elapsed run time:  0.025 Seconds
 Normal termination of simulation.
