                             MODFLOW 6 PROFESSIONAL
                U.S. GEOLOGICAL SURVEY MODULAR HYDROLOGIC MODEL
                  VERSION 6.5.0.dev0 (preliminary) 07/13/2023
                               ***DEVELOP MODE***

        MODFLOW 6 compiled Oct 30 2023 08:23:02 with GCC version 11.3.0

This software is preliminary or provisional and is subject to 
revision. It is being provided to meet the need for timely best 
science. The software has not received final approval by the U.S. 
Geological Survey (USGS). No warranty, expressed or implied, is made 
by the USGS or the U.S. Government as to the functionality of the 
software and related material nor shall the fact of release 
constitute any such warranty. The software is provided on the 
condition that neither the USGS nor the U.S. Government shall be held 
liable for any damages resulting from the authorized or unauthorized 
use of the software.


As a work of the United States Government, this USGS product is 
in the public domain within the United States. You can copy, 
modify, distribute, and perform the work, even for commercial 
purposes, all without asking permission. Additionally, USGS 
waives copyright and related rights in the work worldwide 
through CC0 1.0 Universal Public Domain Dedication 
(https://creativecommons.org/publicdomain/zero/1.0/).

The following GNU Lesser General Public License (LGPL) libraries
are used in this USGS product:

    SPARSKIT version 2.0
      ilut, luson, and qsplit 
      (https://www-users.cse.umn.edu/~saad/software/SPARSKIT/)

    RCM - Reverse Cuthill McKee Ordering
      (https://people.math.sc.edu/Burkardt/f_src/rcm/rcm.html)

    BLAS - Basic Linear Algebra Subprograms Level 1
      (https://people.math.sc.edu/Burkardt/f_src/blas1_d/blas1_d.html)

    SPARSEKIT - Sparse Matrix Utility Package
      amux, dperm, dvperm, rperm, and cperm
      (https://people.sc.fsu.edu/~jburkardt/f77_src/sparsekit/sparsekit.html)

The following BSD-3 License libraries are used in this USGS product:

    Modern Fortran DAG Library
      Copyright (c) 2018, Jacob Williams
      All rights reserved.
      (https://github.com/jacobwilliams/daglib)

The following 2-clause BSD License library is used in this
USGS product:

    PETSc, the Portable, Extensible Toolkit for Scientific
    Computation Library
      Copyright (c) 1991-2021, UChicago Argonne, LLC
      and the PETSc Development Team All rights reserved.
      (https://petsc.org/release/)

MODFLOW 6 compiler options: -cpp -I src/libmf6core.a.p -I src -I ../src -I
src/libmf6_external.a.p -I
/home/mreno/.clone/external/petsc/arch-linux-c-debug/include -I
/home/mreno/.clone/external/petsc/include -I
/home/mreno/.clone/external/petsc/arch-linux-c-debug/lib -I
/home/mreno/miniconda3/envs/modflow6/include -I -fdiagnostics-color=always
-imultiarch x86_64-linux-gnu -D _FILE_OFFSET_BITS=64 -D __linux__ -D
__WITH_PETSC__ -D __WITH_MPI__ -D __WITH_NETCDF__ -mtune=generic
-march=x86-64 -g -O2 -Wall -Wpedantic -Wcharacter-truncation
-Wno-unused-dummy-argument -Wno-intrinsic-shadow -Wno-maybe-uninitialized
-Wno-uninitialized -std=f2008 -fall-intrinsics -fbacktrace -fcheck=all
-ffpe-trap=overflow,zero,invalid -ffpe-summary=overflow
-ffpe-trap=overflow,zero,invalid -fPIC -J src/libmf6core.a.p
-fpre-include=/usr/include/finclude/math-vector-fortran.h

System command used to initiate simulation:
/home/mreno/.clone/usgs/w/netcdf/2/modflow6/bin/mf6

MODFLOW was compiled using uniform precision.

Real Variables
  KIND: 8
  TINY (smallest non-zero value):    2.225074-308
  HUGE (largest value):    1.797693+308
  PRECISION: 15
  SIZE IN BITS: 64

Integer Variables
  KIND: 4
  HUGE (largest value): 2147483647
  SIZE IN BITS: 32

Long Integer Variables
  KIND: 8
  HUGE (largest value): 9223372036854775807
  SIZE IN BITS: 64

Logical Variables
  KIND: 4
  SIZE IN BITS: 32


 OPENED mfsim.nam
 FILE TYPE:NAM6      UNIT 1001   STATUS:OLD                 
 FORMAT:FORMATTED              ACCESS:SEQUENTIAL          
 ACTION:READ                

 # File generated by Flopy version 3.5.0.dev0 on 10/30/2023 at 09:10:24.

 OPENED rch.nam
 FILE TYPE:GWF6      UNIT 1002   STATUS:OLD                 
 FORMAT:FORMATTED              ACCESS:SEQUENTIAL          
 ACTION:READ                

 # File generated by Flopy version 3.5.0.dev0 on 10/30/2023 at 09:10:24.
Model NetCDF4 Input "rch.nc" opened NF90_NOWRITE, ncid=65536
IDM nc modeltype=GWF6
IDM load netcdf var model=GWF6, ptype=DIS6
IDM nc4_context pkg cname=RCH, scname=DIS
IDM load nc model ctype=GWF
IDM load netcdf var model=GWF6, ptype=DIS6, sctype=DIS
Input parameter "NLAY" discovered for package "RCH/DIS".
IDM load netcdf var model=GWF6, ptype=DIS6
IDM nc4_context pkg cname=RCH, scname=DIS
IDM load nc model ctype=GWF
IDM load netcdf var model=GWF6, ptype=DIS6, sctype=DIS
Input parameter "NROW" discovered for package "RCH/DIS".
IDM load netcdf var model=GWF6, ptype=DIS6
IDM nc4_context pkg cname=RCH, scname=DIS
IDM load nc model ctype=GWF
IDM load netcdf var model=GWF6, ptype=DIS6, sctype=DIS
Input parameter "NCOL" discovered for package "RCH/DIS".
IDM load netcdf var model=GWF6, ptype=DIS6
IDM nc4_context pkg cname=RCH, scname=DIS
IDM load nc model ctype=GWF
IDM load netcdf var model=GWF6, ptype=DIS6, sctype=DIS
Input parameter "DELR" discovered for package "RCH/DIS".
IDM load netcdf var model=GWF6, ptype=DIS6
IDM nc4_context pkg cname=RCH, scname=DIS
IDM load nc model ctype=GWF
IDM load netcdf var model=GWF6, ptype=DIS6, sctype=DIS
Input parameter "DELC" discovered for package "RCH/DIS".
IDM load netcdf var model=GWF6, ptype=DIS6
IDM nc4_context pkg cname=RCH, scname=DIS
IDM load nc model ctype=GWF
IDM load netcdf var model=GWF6, ptype=DIS6, sctype=DIS
Input parameter "TOP" discovered for package "RCH/DIS".
IDM load netcdf var model=GWF6, ptype=DIS6
IDM nc4_context pkg cname=RCH, scname=DIS
IDM load nc model ctype=GWF
IDM load netcdf var model=GWF6, ptype=DIS6, sctype=DIS
Input parameter "BOTM" discovered for package "RCH/DIS".
IDM load netcdf var model=GWF6, ptype=DIS6
IDM nc4_context pkg cname=RCH, scname=DIS
IDM load nc model ctype=GWF
IDM load netcdf var model=GWF6, ptype=DIS6, sctype=DIS
Input parameter "IDOMAIN" discovered for package "RCH/DIS".
IDM load netcdf var model=GWF6, ptype=NPF6
IDM nc4_context pkg cname=RCH, scname=DIS
IDM nc4_context pkg cname=RCH, scname=NPF
IDM load nc model ctype=GWF
IDM load netcdf var model=GWF6, ptype=NPF6, sctype=NPF
Input parameter "SAVE_FLOWS" discovered for package "RCH/NPF".
IDM load netcdf var model=GWF6, ptype=NPF6
IDM nc4_context pkg cname=RCH, scname=DIS
IDM nc4_context pkg cname=RCH, scname=NPF
IDM load nc model ctype=GWF
IDM load netcdf var model=GWF6, ptype=NPF6, sctype=NPF
Input parameter "ICELLTYPE" discovered for package "RCH/NPF".
IDM load netcdf var model=GWF6, ptype=NPF6
IDM nc4_context pkg cname=RCH, scname=DIS
IDM nc4_context pkg cname=RCH, scname=NPF
IDM load nc model ctype=GWF
IDM load netcdf var model=GWF6, ptype=NPF6, sctype=NPF
Input parameter "K" discovered for package "RCH/NPF".
IDM load netcdf var model=GWF6, ptype=CHD6
IDM nc4_context pkg cname=RCH, scname=DIS
IDM nc4_context pkg cname=RCH, scname=NPF
IDM nc4_context pkg cname=RCH, scname=RCHA_0
IDM nc4_context pkg cname=RCH, scname=CHD_0
IDM load nc model ctype=GWF
IDM load netcdf var model=GWF6, ptype=CHD6, sctype=CHD
Input parameter "MAXBOUND" discovered for package "RCH/CHD_0".
IDM load netcdf var model=GWF6, ptype=CHD6
IDM nc4_context pkg cname=RCH, scname=DIS
IDM nc4_context pkg cname=RCH, scname=NPF
IDM nc4_context pkg cname=RCH, scname=RCHA_0
IDM nc4_context pkg cname=RCH, scname=CHD_0
IDM load nc model ctype=GWF
IDM load netcdf var model=GWF6, ptype=CHD6
IDM nc4_context pkg cname=RCH, scname=DIS
IDM nc4_context pkg cname=RCH, scname=NPF
IDM nc4_context pkg cname=RCH, scname=RCHA_0
IDM nc4_context pkg cname=RCH, scname=CHD_0
IDM load nc model ctype=GWF
IDM load netcdf var model=GWF6, ptype=CHD6, sctype=CHD
Input parameter "CELLID" discovered for package "RCH/CHD_0".
IDM load netcdf var model=GWF6, ptype=CHD6
IDM nc4_context pkg cname=RCH, scname=DIS
IDM nc4_context pkg cname=RCH, scname=NPF
IDM nc4_context pkg cname=RCH, scname=RCHA_0
IDM nc4_context pkg cname=RCH, scname=CHD_0
IDM load nc model ctype=GWF
IDM load netcdf var model=GWF6, ptype=CHD6, sctype=CHD
Input parameter "HEAD" discovered for package "RCH/CHD_0".
IDM load netcdf var model=GWF6, ptype=RCHA6
IDM nc4_context pkg cname=RCH, scname=DIS
IDM nc4_context pkg cname=RCH, scname=NPF
IDM nc4_context pkg cname=RCH, scname=RCHA_0
IDM load nc model ctype=GWF
IDM load netcdf var model=GWF6, ptype=RCHA6, sctype=RCHA
Input parameter "READASARRAYS" discovered for package "RCH/RCHA_0".
IDM load netcdf var model=GWF6, ptype=RCHA6
IDM nc4_context pkg cname=RCH, scname=DIS
IDM nc4_context pkg cname=RCH, scname=NPF
IDM nc4_context pkg cname=RCH, scname=RCHA_0
IDM load nc model ctype=GWF
IDM load netcdf var model=GWF6, ptype=RCHA6, sctype=RCHA
Input parameter "PRINT_FLOWS" discovered for package "RCH/RCHA_0".
IDM load netcdf var model=GWF6, ptype=RCHA6
IDM nc4_context pkg cname=RCH, scname=DIS
IDM nc4_context pkg cname=RCH, scname=NPF
IDM nc4_context pkg cname=RCH, scname=RCHA_0
IDM load nc model ctype=GWF
IDM load netcdf var model=GWF6, ptype=RCHA6
IDM nc4_context pkg cname=RCH, scname=DIS
IDM nc4_context pkg cname=RCH, scname=NPF
IDM nc4_context pkg cname=RCH, scname=RCHA_0
IDM load nc model ctype=GWF
IDM load netcdf var model=GWF6, ptype=RCHA6, sctype=RCHA
IDM checking griddata parameter=RECHARGE
Input parameter "RECHARGE" discovered for package "RCH/RCHA_0".
IDM input_load pkg=DIS
IDM NF90_MAX_DIMS=1024
IDM NF90_MAX_VAR_DIMS=1024
varname=NLAY, type=INTEGER
varname=NROW, type=INTEGER
varname=NCOL, type=INTEGER
varname=DELR, type=DOUBLE1D
varname=DELC, type=DOUBLE1D
varname=TOP, type=DOUBLE2D
varname=BOTM, type=DOUBLE3D
varname=IDOMAIN, type=INTEGER3D
    ALL SIMULATION MEMORY INFORMATION WILL BE WRITTEN.

 DETAILED INFORMATION ON VARIABLES STORED IN THE MEMORY MANAGER
 -----------------------------------------------------------------------------------------------------------------------------------------------------------------------------
 ORIGIN                                             VARIABLE NAME    DATA TYPE             NUMBER OF ITEMS ASSOCIATED VARIABLE                                                
 -----------------------------------------------------------------------------------------------------------------------------------------------------------------------------
 __INPUT__/SIM/NAM                                  TDIS6            STRING LEN=300                      1 --                                                                 
 __INPUT__/SIM/NAM                                  MTYPE            STRING LEN=300                      1 --                                                                 
 __INPUT__/SIM/NAM                                  MFNAME           STRING LEN=300                      1 --                                                                 
 __INPUT__/SIM/NAM                                  MNAME            STRING LEN=300                      1 --                                                                 
 __INPUT__/SIM/NAM                                  EXGTYPE          STRING LEN=300                      0 --                                                                 
 __INPUT__/SIM/NAM                                  EXGFILE          STRING LEN=300                      0 --                                                                 
 __INPUT__/SIM/NAM                                  EXGMNAMEA        STRING LEN=300                      0 --                                                                 
 __INPUT__/SIM/NAM                                  EXGMNAMEB        STRING LEN=300                      0 --                                                                 
 __INPUT__/SIM/NAM                                  SOLUTIONGROUPNUM INTEGER                             1 --                                                                 
 __INPUT__/SIM/NAM                                  SLNTYPE          STRING LEN=300                      1 --                                                                 
 __INPUT__/SIM/NAM                                  SLNFNAME         STRING LEN=300                      1 --                                                                 
 __INPUT__/SIM/NAM                                  SLNMNAMES        STRING LEN=300                      1 --                                                                 
 __INPUT__/SIM/NAM                                  CONTINUE         INTEGER                             1 --                                                                 
 __INPUT__/SIM/NAM                                  NOCHECK          INTEGER                             1 --                                                                 
 __INPUT__/SIM/NAM                                  PRMEM            STRING LEN=300                      1 --                                                                 
 __INPUT__/SIM/NAM                                  MAXERRORS        INTEGER                             1 --                                                                 
 __INPUT__/SIM/NAM                                  PRINT_INPUT      INTEGER                             1 --                                                                 
 __INPUT__/SIM/NAM                                  MXITER           INTEGER                             1 --                                                                 
 __INPUT__/SIM                                      NUMMODELS        INTEGER                             1 --                                                                 
 __INPUT__/SIM                                      NUMEXCHANGES     INTEGER                             1 --                                                                 
 __INPUT__/RCH/NAM                                  SAVE_FLOWS       INTEGER                             1 --                                                                 
 __INPUT__/RCH/NAM                                  FTYPE            STRING LEN=300                      6 --                                                                 
 __INPUT__/RCH/NAM                                  FNAME            STRING LEN=300                      6 --                                                                 
 __INPUT__/RCH/NAM                                  PNAME            STRING LEN=300                      6 --                                                                 
 __INPUT__/RCH                                      PKGTYPES         STRING LEN=7                        0 --                                                                 
 __INPUT__/RCH                                      PKGNAMES         STRING LEN=16                       0 --                                                                 
 __INPUT__/RCH                                      MEMPATHS         STRING LEN=50                       0 --                                                                 
 __INPUT__/RCH                                      INUNITS          INTEGER                             0 --                                                                 
 __INPUT__/RCH/DIS                                  INPUT_FNAME      STRING LEN=300                      1 --                                                                 
 __INPUT__/RCH/NPF                                  INPUT_FNAME      STRING LEN=300                      1 --                                                                 
 __INPUT__/RCH/CHD_0                                INPUT_FNAME      STRING LEN=300                      1 --                                                                 
 __INPUT__/RCH/RCHA_0                               INPUT_FNAME      STRING LEN=300                      1 --                                                                 
 __INPUT__/RCH/DIS                                  NLAY             INTEGER                             1 --                                                                 
 __INPUT__/RCH/DIS                                  NROW             INTEGER                             1 --                                                                 
 __INPUT__/RCH/DIS                                  NCOL             INTEGER                             1 --                                                                 
 __INPUT__/RCH                                      MODEL_SHAPE      INTEGER                             3 --                                                                 
 __INPUT__/RCH                                      NCELLDIM         INTEGER                             1 --                                                                 
 __INPUT__/RCH/DIS                                  DELR             DOUBLE                              5 --                                                                 
 __INPUT__/RCH/DIS                                  DELC             DOUBLE                              4 --                                                                 
 __INPUT__/RCH/DIS                                  TOP              DOUBLE                             20 --                                                                 
 __INPUT__/RCH/DIS                                  BOTM             DOUBLE                             40 --                                                                 
 __INPUT__/RCH/DIS                                  IDOMAIN          INTEGER                            40 --                                                                 
 -----------------------------------------------------------------------------------------------------------------------------------------------------------------------------



 MEMORY MANAGER TOTAL STORAGE BY DATA TYPE, IN KILOBYTES
 -------------------------------
                    ALLOCATED   
 DATA TYPE           MEMORY     
 -------------------------------
 Character        1.8240000     
 Logical          0.0000000     
 Integer          0.22400000    
 Real             0.55200000    
 -------------------------------
 Total            2.6000000     
 Virtual          0.0000000     
 -------------------------------


IDM input_load pkg=NPF
IDM NF90_MAX_DIMS=1024
IDM NF90_MAX_VAR_DIMS=1024
varname=IPAKCB, type=KEYWORD
varname=ICELLTYPE, type=INTEGER1D
varname=K, type=DOUBLE1D
    ALL SIMULATION MEMORY INFORMATION WILL BE WRITTEN.

 DETAILED INFORMATION ON VARIABLES STORED IN THE MEMORY MANAGER
 -----------------------------------------------------------------------------------------------------------------------------------------------------------------------------
 ORIGIN                                             VARIABLE NAME    DATA TYPE             NUMBER OF ITEMS ASSOCIATED VARIABLE                                                
 -----------------------------------------------------------------------------------------------------------------------------------------------------------------------------
 __INPUT__/SIM/NAM                                  TDIS6            STRING LEN=300                      1 --                                                                 
 __INPUT__/SIM/NAM                                  MTYPE            STRING LEN=300                      1 --                                                                 
 __INPUT__/SIM/NAM                                  MFNAME           STRING LEN=300                      1 --                                                                 
 __INPUT__/SIM/NAM                                  MNAME            STRING LEN=300                      1 --                                                                 
 __INPUT__/SIM/NAM                                  EXGTYPE          STRING LEN=300                      0 --                                                                 
 __INPUT__/SIM/NAM                                  EXGFILE          STRING LEN=300                      0 --                                                                 
 __INPUT__/SIM/NAM                                  EXGMNAMEA        STRING LEN=300                      0 --                                                                 
 __INPUT__/SIM/NAM                                  EXGMNAMEB        STRING LEN=300                      0 --                                                                 
 __INPUT__/SIM/NAM                                  SOLUTIONGROUPNUM INTEGER                             1 --                                                                 
 __INPUT__/SIM/NAM                                  SLNTYPE          STRING LEN=300                      1 --                                                                 
 __INPUT__/SIM/NAM                                  SLNFNAME         STRING LEN=300                      1 --                                                                 
 __INPUT__/SIM/NAM                                  SLNMNAMES        STRING LEN=300                      1 --                                                                 
 __INPUT__/SIM/NAM                                  CONTINUE         INTEGER                             1 --                                                                 
 __INPUT__/SIM/NAM                                  NOCHECK          INTEGER                             1 --                                                                 
 __INPUT__/SIM/NAM                                  PRMEM            STRING LEN=300                      1 --                                                                 
 __INPUT__/SIM/NAM                                  MAXERRORS        INTEGER                             1 --                                                                 
 __INPUT__/SIM/NAM                                  PRINT_INPUT      INTEGER                             1 --                                                                 
 __INPUT__/SIM/NAM                                  MXITER           INTEGER                             1 --                                                                 
 __INPUT__/SIM                                      NUMMODELS        INTEGER                             1 --                                                                 
 __INPUT__/SIM                                      NUMEXCHANGES     INTEGER                             1 --                                                                 
 __INPUT__/RCH/NAM                                  SAVE_FLOWS       INTEGER                             1 --                                                                 
 __INPUT__/RCH/NAM                                  FTYPE            STRING LEN=300                      6 --                                                                 
 __INPUT__/RCH/NAM                                  FNAME            STRING LEN=300                      6 --                                                                 
 __INPUT__/RCH/NAM                                  PNAME            STRING LEN=300                      6 --                                                                 
 __INPUT__/RCH                                      PKGTYPES         STRING LEN=7                        0 --                                                                 
 __INPUT__/RCH                                      PKGNAMES         STRING LEN=16                       0 --                                                                 
 __INPUT__/RCH                                      MEMPATHS         STRING LEN=50                       0 --                                                                 
 __INPUT__/RCH                                      INUNITS          INTEGER                             0 --                                                                 
 __INPUT__/RCH/DIS                                  INPUT_FNAME      STRING LEN=300                      1 --                                                                 
 __INPUT__/RCH/NPF                                  INPUT_FNAME      STRING LEN=300                      1 --                                                                 
 __INPUT__/RCH/CHD_0                                INPUT_FNAME      STRING LEN=300                      1 --                                                                 
 __INPUT__/RCH/RCHA_0                               INPUT_FNAME      STRING LEN=300                      1 --                                                                 
 __INPUT__/RCH/DIS                                  NLAY             INTEGER                             1 --                                                                 
 __INPUT__/RCH/DIS                                  NROW             INTEGER                             1 --                                                                 
 __INPUT__/RCH/DIS                                  NCOL             INTEGER                             1 --                                                                 
 __INPUT__/RCH                                      MODEL_SHAPE      INTEGER                             3 --                                                                 
 __INPUT__/RCH                                      NCELLDIM         INTEGER                             1 --                                                                 
 __INPUT__/RCH/DIS                                  DELR             DOUBLE                              5 --                                                                 
 __INPUT__/RCH/DIS                                  DELC             DOUBLE                              4 --                                                                 
 __INPUT__/RCH/DIS                                  TOP              DOUBLE                             20 --                                                                 
 __INPUT__/RCH/DIS                                  BOTM             DOUBLE                             40 --                                                                 
 __INPUT__/RCH/DIS                                  IDOMAIN          INTEGER                            40 --                                                                 
 __INPUT__/RCH/NPF                                  IPAKCB           INTEGER                             1 --                                                                 
 __INPUT__/RCH/NPF                                  ICELLTYPE        INTEGER                            40 --                                                                 
 __INPUT__/RCH/NPF                                  K                DOUBLE                             40 --                                                                 
 -----------------------------------------------------------------------------------------------------------------------------------------------------------------------------



 MEMORY MANAGER TOTAL STORAGE BY DATA TYPE, IN KILOBYTES
 -------------------------------
                    ALLOCATED   
 DATA TYPE           MEMORY     
 -------------------------------
 Character        1.8240000     
 Logical          0.0000000     
 Integer          0.38800000    
 Real             0.87200000    
 -------------------------------
 Total            3.0840000     
 Virtual          0.0000000     
 -------------------------------



 OPENED rch.ic
 FILE TYPE:IC6       UNIT 1003   STATUS:OLD                 
 FORMAT:FORMATTED              ACCESS:SEQUENTIAL          
 ACTION:READ                


 OPENED rch.oc
 FILE TYPE:OC6       UNIT 1004   STATUS:OLD                 
 FORMAT:FORMATTED              ACCESS:SEQUENTIAL          
 ACTION:READ                

IDM input_load pkg=RCHA_0
IDM NF90_MAX_DIMS=1024
IDM NF90_MAX_VAR_DIMS=1024
varname=READASARRAYS, type=KEYWORD
varname=IPRFLOW, type=KEYWORD
    ALL SIMULATION MEMORY INFORMATION WILL BE WRITTEN.

 DETAILED INFORMATION ON VARIABLES STORED IN THE MEMORY MANAGER
 -----------------------------------------------------------------------------------------------------------------------------------------------------------------------------
 ORIGIN                                             VARIABLE NAME    DATA TYPE             NUMBER OF ITEMS ASSOCIATED VARIABLE                                                
 -----------------------------------------------------------------------------------------------------------------------------------------------------------------------------
 __INPUT__/SIM/NAM                                  TDIS6            STRING LEN=300                      1 --                                                                 
 __INPUT__/SIM/NAM                                  MTYPE            STRING LEN=300                      1 --                                                                 
 __INPUT__/SIM/NAM                                  MFNAME           STRING LEN=300                      1 --                                                                 
 __INPUT__/SIM/NAM                                  MNAME            STRING LEN=300                      1 --                                                                 
 __INPUT__/SIM/NAM                                  EXGTYPE          STRING LEN=300                      0 --                                                                 
 __INPUT__/SIM/NAM                                  EXGFILE          STRING LEN=300                      0 --                                                                 
 __INPUT__/SIM/NAM                                  EXGMNAMEA        STRING LEN=300                      0 --                                                                 
 __INPUT__/SIM/NAM                                  EXGMNAMEB        STRING LEN=300                      0 --                                                                 
 __INPUT__/SIM/NAM                                  SOLUTIONGROUPNUM INTEGER                             1 --                                                                 
 __INPUT__/SIM/NAM                                  SLNTYPE          STRING LEN=300                      1 --                                                                 
 __INPUT__/SIM/NAM                                  SLNFNAME         STRING LEN=300                      1 --                                                                 
 __INPUT__/SIM/NAM                                  SLNMNAMES        STRING LEN=300                      1 --                                                                 
 __INPUT__/SIM/NAM                                  CONTINUE         INTEGER                             1 --                                                                 
 __INPUT__/SIM/NAM                                  NOCHECK          INTEGER                             1 --                                                                 
 __INPUT__/SIM/NAM                                  PRMEM            STRING LEN=300                      1 --                                                                 
 __INPUT__/SIM/NAM                                  MAXERRORS        INTEGER                             1 --                                                                 
 __INPUT__/SIM/NAM                                  PRINT_INPUT      INTEGER                             1 --                                                                 
 __INPUT__/SIM/NAM                                  MXITER           INTEGER                             1 --                                                                 
 __INPUT__/SIM                                      NUMMODELS        INTEGER                             1 --                                                                 
 __INPUT__/SIM                                      NUMEXCHANGES     INTEGER                             1 --                                                                 
 __INPUT__/RCH/NAM                                  SAVE_FLOWS       INTEGER                             1 --                                                                 
 __INPUT__/RCH/NAM                                  FTYPE            STRING LEN=300                      6 --                                                                 
 __INPUT__/RCH/NAM                                  FNAME            STRING LEN=300                      6 --                                                                 
 __INPUT__/RCH/NAM                                  PNAME            STRING LEN=300                      6 --                                                                 
 __INPUT__/RCH                                      PKGTYPES         STRING LEN=7                        0 --                                                                 
 __INPUT__/RCH                                      PKGNAMES         STRING LEN=16                       0 --                                                                 
 __INPUT__/RCH                                      MEMPATHS         STRING LEN=50                       0 --                                                                 
 __INPUT__/RCH                                      INUNITS          INTEGER                             0 --                                                                 
 __INPUT__/RCH/DIS                                  INPUT_FNAME      STRING LEN=300                      1 --                                                                 
 __INPUT__/RCH/NPF                                  INPUT_FNAME      STRING LEN=300                      1 --                                                                 
 __INPUT__/RCH/CHD_0                                INPUT_FNAME      STRING LEN=300                      1 --                                                                 
 __INPUT__/RCH/RCHA_0                               INPUT_FNAME      STRING LEN=300                      1 --                                                                 
 __INPUT__/RCH/DIS                                  NLAY             INTEGER                             1 --                                                                 
 __INPUT__/RCH/DIS                                  NROW             INTEGER                             1 --                                                                 
 __INPUT__/RCH/DIS                                  NCOL             INTEGER                             1 --                                                                 
 __INPUT__/RCH                                      MODEL_SHAPE      INTEGER                             3 --                                                                 
 __INPUT__/RCH                                      NCELLDIM         INTEGER                             1 --                                                                 
 __INPUT__/RCH/DIS                                  DELR             DOUBLE                              5 --                                                                 
 __INPUT__/RCH/DIS                                  DELC             DOUBLE                              4 --                                                                 
 __INPUT__/RCH/DIS                                  TOP              DOUBLE                             20 --                                                                 
 __INPUT__/RCH/DIS                                  BOTM             DOUBLE                             40 --                                                                 
 __INPUT__/RCH/DIS                                  IDOMAIN          INTEGER                            40 --                                                                 
 __INPUT__/RCH/NPF                                  IPAKCB           INTEGER                             1 --                                                                 
 __INPUT__/RCH/NPF                                  ICELLTYPE        INTEGER                            40 --                                                                 
 __INPUT__/RCH/NPF                                  K                DOUBLE                             40 --                                                                 
 __INPUT__/RCH/RCHA_0                               READASARRAYS     INTEGER                             1 --                                                                 
 __INPUT__/RCH/RCHA_0                               IPRFLOW          INTEGER                             1 --                                                                 
 __INPUT__/RCH/RCHA_0                               NAUX             INTEGER                             1 --                                                                 
 __INPUT__/RCH/RCHA_0                               IPER             INTEGER                             1 --                                                                 
 __INPUT__/RCH/RCHA_0                               IONPER           INTEGER                             1 --                                                                 
 __INPUT__/RCH/RCHA_0                               NBOUND           INTEGER                             1 --                                                                 
 __INPUT__/RCH/RCHA_0                               NCPL             INTEGER                             1 --                                                                 
 __INPUT__/RCH/RCHA_0                               AUXILIARY        STRING LEN=16                       0 --                                                                 
 __INPUT__/RCH/RCHA_0                               CELLID           INTEGER                             0 --                                                                 
 __INPUT__/RCH/RCHA_0                               IRCH             INTEGER                            20 --                                                                 
 __INPUT__/RCH/RCHA_0                               RECHARGE         DOUBLE                             20 --                                                                 
 __INPUT__/RCH/RCHA_0                               BOUNDNAME        STRING LEN=40                       0 --                                                                 
 __INPUT__/RCH/RCHA_0                               AUXVAR           DOUBLE                              0 --                                                                 
 __INPUT__/RCH/RCHA_0                               INIRCH           INTEGER                             1 --                                                                 
 __INPUT__/RCH/RCHA_0                               INRECHARGE       INTEGER                             1 --                                                                 
 -----------------------------------------------------------------------------------------------------------------------------------------------------------------------------



 MEMORY MANAGER TOTAL STORAGE BY DATA TYPE, IN KILOBYTES
 -------------------------------
                    ALLOCATED   
 DATA TYPE           MEMORY     
 -------------------------------
 Character        1.8240000     
 Logical          0.0000000     
 Integer          0.50400000    
 Real             1.0320000     
 -------------------------------
 Total            3.3600000     
 Virtual          0.0000000     
 -------------------------------


IDM input_load pkg=CHD_0
IDM NF90_MAX_DIMS=1024
IDM NF90_MAX_VAR_DIMS=1024
varname=MAXBOUND, type=INTEGER
    ALL SIMULATION MEMORY INFORMATION WILL BE WRITTEN.

 DETAILED INFORMATION ON VARIABLES STORED IN THE MEMORY MANAGER
 -----------------------------------------------------------------------------------------------------------------------------------------------------------------------------
 ORIGIN                                             VARIABLE NAME    DATA TYPE             NUMBER OF ITEMS ASSOCIATED VARIABLE                                                
 -----------------------------------------------------------------------------------------------------------------------------------------------------------------------------
 __INPUT__/SIM/NAM                                  TDIS6            STRING LEN=300                      1 --                                                                 
 __INPUT__/SIM/NAM                                  MTYPE            STRING LEN=300                      1 --                                                                 
 __INPUT__/SIM/NAM                                  MFNAME           STRING LEN=300                      1 --                                                                 
 __INPUT__/SIM/NAM                                  MNAME            STRING LEN=300                      1 --                                                                 
 __INPUT__/SIM/NAM                                  EXGTYPE          STRING LEN=300                      0 --                                                                 
 __INPUT__/SIM/NAM                                  EXGFILE          STRING LEN=300                      0 --                                                                 
 __INPUT__/SIM/NAM                                  EXGMNAMEA        STRING LEN=300                      0 --                                                                 
 __INPUT__/SIM/NAM                                  EXGMNAMEB        STRING LEN=300                      0 --                                                                 
 __INPUT__/SIM/NAM                                  SOLUTIONGROUPNUM INTEGER                             1 --                                                                 
 __INPUT__/SIM/NAM                                  SLNTYPE          STRING LEN=300                      1 --                                                                 
 __INPUT__/SIM/NAM                                  SLNFNAME         STRING LEN=300                      1 --                                                                 
 __INPUT__/SIM/NAM                                  SLNMNAMES        STRING LEN=300                      1 --                                                                 
 __INPUT__/SIM/NAM                                  CONTINUE         INTEGER                             1 --                                                                 
 __INPUT__/SIM/NAM                                  NOCHECK          INTEGER                             1 --                                                                 
 __INPUT__/SIM/NAM                                  PRMEM            STRING LEN=300                      1 --                                                                 
 __INPUT__/SIM/NAM                                  MAXERRORS        INTEGER                             1 --                                                                 
 __INPUT__/SIM/NAM                                  PRINT_INPUT      INTEGER                             1 --                                                                 
 __INPUT__/SIM/NAM                                  MXITER           INTEGER                             1 --                                                                 
 __INPUT__/SIM                                      NUMMODELS        INTEGER                             1 --                                                                 
 __INPUT__/SIM                                      NUMEXCHANGES     INTEGER                             1 --                                                                 
 __INPUT__/RCH/NAM                                  SAVE_FLOWS       INTEGER                             1 --                                                                 
 __INPUT__/RCH/NAM                                  FTYPE            STRING LEN=300                      6 --                                                                 
 __INPUT__/RCH/NAM                                  FNAME            STRING LEN=300                      6 --                                                                 
 __INPUT__/RCH/NAM                                  PNAME            STRING LEN=300                      6 --                                                                 
 __INPUT__/RCH                                      PKGTYPES         STRING LEN=7                        0 --                                                                 
 __INPUT__/RCH                                      PKGNAMES         STRING LEN=16                       0 --                                                                 
 __INPUT__/RCH                                      MEMPATHS         STRING LEN=50                       0 --                                                                 
 __INPUT__/RCH                                      INUNITS          INTEGER                             0 --                                                                 
 __INPUT__/RCH/DIS                                  INPUT_FNAME      STRING LEN=300                      1 --                                                                 
 __INPUT__/RCH/NPF                                  INPUT_FNAME      STRING LEN=300                      1 --                                                                 
 __INPUT__/RCH/CHD_0                                INPUT_FNAME      STRING LEN=300                      1 --                                                                 
 __INPUT__/RCH/RCHA_0                               INPUT_FNAME      STRING LEN=300                      1 --                                                                 
 __INPUT__/RCH/DIS                                  NLAY             INTEGER                             1 --                                                                 
 __INPUT__/RCH/DIS                                  NROW             INTEGER                             1 --                                                                 
 __INPUT__/RCH/DIS                                  NCOL             INTEGER                             1 --                                                                 
 __INPUT__/RCH                                      MODEL_SHAPE      INTEGER                             3 --                                                                 
 __INPUT__/RCH                                      NCELLDIM         INTEGER                             1 --                                                                 
 __INPUT__/RCH/DIS                                  DELR             DOUBLE                              5 --                                                                 
 __INPUT__/RCH/DIS                                  DELC             DOUBLE                              4 --                                                                 
 __INPUT__/RCH/DIS                                  TOP              DOUBLE                             20 --                                                                 
 __INPUT__/RCH/DIS                                  BOTM             DOUBLE                             40 --                                                                 
 __INPUT__/RCH/DIS                                  IDOMAIN          INTEGER                            40 --                                                                 
 __INPUT__/RCH/NPF                                  IPAKCB           INTEGER                             1 --                                                                 
 __INPUT__/RCH/NPF                                  ICELLTYPE        INTEGER                            40 --                                                                 
 __INPUT__/RCH/NPF                                  K                DOUBLE                             40 --                                                                 
 __INPUT__/RCH/RCHA_0                               READASARRAYS     INTEGER                             1 --                                                                 
 __INPUT__/RCH/RCHA_0                               IPRFLOW          INTEGER                             1 --                                                                 
 __INPUT__/RCH/RCHA_0                               NAUX             INTEGER                             1 --                                                                 
 __INPUT__/RCH/RCHA_0                               IPER             INTEGER                             1 --                                                                 
 __INPUT__/RCH/RCHA_0                               IONPER           INTEGER                             1 --                                                                 
 __INPUT__/RCH/RCHA_0                               NBOUND           INTEGER                             1 --                                                                 
 __INPUT__/RCH/RCHA_0                               NCPL             INTEGER                             1 --                                                                 
 __INPUT__/RCH/RCHA_0                               AUXILIARY        STRING LEN=16                       0 --                                                                 
 __INPUT__/RCH/RCHA_0                               CELLID           INTEGER                             0 --                                                                 
 __INPUT__/RCH/RCHA_0                               IRCH             INTEGER                            20 --                                                                 
 __INPUT__/RCH/RCHA_0                               RECHARGE         DOUBLE                             20 --                                                                 
 __INPUT__/RCH/RCHA_0                               BOUNDNAME        STRING LEN=40                       0 --                                                                 
 __INPUT__/RCH/RCHA_0                               AUXVAR           DOUBLE                              0 --                                                                 
 __INPUT__/RCH/RCHA_0                               INIRCH           INTEGER                             1 --                                                                 
 __INPUT__/RCH/RCHA_0                               INRECHARGE       INTEGER                             1 --                                                                 
 __INPUT__/RCH/CHD_0                                NAUX             INTEGER                             1 --                                                                 
 __INPUT__/RCH/CHD_0                                MAXBOUND         INTEGER                             1 --                                                                 
 __INPUT__/RCH/CHD_0                                IPER             INTEGER                             1 --                                                                 
 __INPUT__/RCH/CHD_0                                IONPER           INTEGER                             1 --                                                                 
 __INPUT__/RCH/CHD_0                                NBOUND           INTEGER                             1 --                                                                 
 __INPUT__/RCH/CHD_0                                NCPL             INTEGER                             1 --                                                                 
 __INPUT__/RCH/CHD_0                                AUXILIARY        STRING LEN=16                       0 --                                                                 
 __INPUT__/RCH/CHD_0                                CELLID           INTEGER                             3 --                                                                 
 __INPUT__/RCH/CHD_0                                HEAD             DOUBLE                              1 --                                                                 
 __INPUT__/RCH/CHD_0                                BOUNDNAME        STRING LEN=40                       0 --                                                                 
 __INPUT__/RCH/CHD_0                                AUXVAR           DOUBLE                              0 --                                                                 
 -----------------------------------------------------------------------------------------------------------------------------------------------------------------------------



 MEMORY MANAGER TOTAL STORAGE BY DATA TYPE, IN KILOBYTES
 -------------------------------
                    ALLOCATED   
 DATA TYPE           MEMORY     
 -------------------------------
 Character        1.8240000     
 Logical          0.0000000     
 Integer          0.54000000    
 Real             1.0400000     
 -------------------------------
 Total            3.4040000     
 Virtual          0.0000000     
 -------------------------------



 READING SIMULATION OPTIONS
    MAXIMUM NUMBER OF ERRORS THAT WILL BE STORED IS 1000
 END OF SIMULATION OPTIONS

 READING SIMULATION TIMING

 OPENED rch.tdis
 FILE TYPE:TDIS   UNIT 1005   STATUS:OLD                 
 FORMAT:FORMATTED              ACCESS:SEQUENTIAL          
 ACTION:READ                


 TDIS -- TEMPORAL DISCRETIZATION PACKAGE,
 VERSION 1 : 11/13/2014 - INPUT READ FROM UNIT 1005
 # File generated by Flopy version 3.5.0.dev0 on 10/30/2023 at 09:10:24.
 PROCESSING TDIS OPTIONS
    SIMULATION TIME UNIT IS DAYS
 END OF TDIS OPTIONS
 PROCESSING TDIS DIMENSIONS
    1 STRESS PERIOD(S) IN SIMULATION
 END OF TDIS DIMENSIONS
 PROCESSING TDIS PERIODDATA


 STRESS PERIOD     LENGTH       TIME STEPS     MULTIPLIER FOR DELT
 ----------------------------------------------------------------------------
        1         1.000000          1                    1.000
 END OF TDIS PERIODDATA
 END OF SIMULATION TIMING

 READING SIMULATION MODELS
    GWF6 model 1 will be created
 END OF SIMULATION MODELS

 READING SIMULATION EXCHANGES
 END OF SIMULATION EXCHANGES

 READING SOLUTIONGROUP

 Creating solution: SLN_1           

 OPENED rch.ims
 FILE TYPE:IMS   UNIT 1007   STATUS:OLD                 
 FORMAT:FORMATTED              ACCESS:SEQUENTIAL          
 ACTION:READ                

 END OF SOLUTIONGROUP

PROCESSING MODEL CONNECTIONS

 IMS -- ITERATIVE MODEL SOLUTION PACKAGE, VERSION 6, 4/28/2017
         INPUT READ FROM UNIT 1007
 # File generated by Flopy version 3.5.0.dev0 on 10/30/2023 at 09:10:24.

 PROCESSING IMS OPTIONS

 OPENED rch.outer.ims.csv
 FILE TYPE:CSV_OUTER_OUTPUT   UNIT 1011   STATUS:REPLACE             
 FORMAT:FORMATTED              ACCESS:SEQUENTIAL          
 ACTION:READWRITE           

    CSV OUTPUT WILL BE SAVED TO FILE: rch.outer.ims.csv
    OPENED ON UNIT:    1011

 OPENED rch.inner.ims.csv
 FILE TYPE:CSV_INNER_OUTPUT   UNIT 1012   STATUS:REPLACE             
 FORMAT:FORMATTED              ACCESS:SEQUENTIAL          
 ACTION:READWRITE           

    CSV OUTPUT WILL BE SAVED TO FILE: rch.inner.ims.csv
    OPENED ON UNIT:    1012
 END OF IMS OPTIONS

 PROCESSING IMS NONLINEAR
 END OF IMS NONLINEAR DATA
 **UNDER-RELAXATION WILL BE USED***


 PROCESSING LINEAR DATA
 END OF LINEAR DATA
 ***IMS LINEAR SOLVER WILL BE USED***

 IMSLINEAR -- UNSTRUCTURED LINEAR SOLUTION PACKAGE, VERSION 8, 04/28/2017
 An asymmetric matrix will be solved

 OUTER ITERATION CONVERGENCE CRITERION    (DVCLOSE) =    0.100000E-08
 MAXIMUM NUMBER OF OUTER ITERATIONS        (MXITER) = 100
 SOLVER PRINTOUT INDEX                     (IPRIMS) = 2
 NONLINEAR ITERATION METHOD            (NONLINMETH) = 3
 LINEAR SOLUTION METHOD                   (LINMETH) = 1
 UNDER-RELAXATION WEIGHT REDUCTION FACTOR   (THETA) =    0.100000E+01
 UNDER-RELAXATION WEIGHT INCREASE INCREMENT (KAPPA) =    0.000000E+00
 UNDER-RELAXATION PREVIOUS HISTORY FACTOR   (GAMMA) =    0.100000E+01
 UNDER-RELAXATION MOMENTUM TERM         (AMOMENTUM) =    0.000000E+00

       SOLUTION BY THE BICONJUGATE-GRADIENT STABILIZED METHOD
 ------------------------------------------------------------------
 MAXIMUM OF 100 CALLS OF SOLUTION ROUTINE
 MAXIMUM OF 300 INTERNAL ITERATIONS PER CALL TO SOLUTION ROUTINE
 LINEAR ACCELERATION METHOD            = BCGS      
 MATRIX PRECONDITIONING TYPE           = MOD. INCOMPLETE LU  
 MATRIX SCALING APPROACH               = NO SCALING          
 MATRIX REORDERING APPROACH            = ORIGINAL ORDERING        
 NUMBER OF ORTHOGONALIZATIONS          = 0
 HEAD CHANGE CRITERION FOR CLOSURE     =    0.10000E-08
 RESIDUAL CHANGE CRITERION FOR CLOSURE =    0.10000E-02
 RESIDUAL CONVERGENCE OPTION           = 0
 RESIDUAL CONVERGENCE NORM             = INFINITY NORM   
 RELAXATION FACTOR                     =    0.97000E+00




    Solving:  Stress period:     1    Time step:     1

1
                            STRESS PERIOD NO. 1, LENGTH =   1.000000    
                            -----------------------------------------------
                            NUMBER OF TIME STEPS = 1
                            MULTIPLIER FOR DELT =     1.000
IDM inlist_rp iiper=1
IDM RP LIST kper=1
IDM RP LIST varname=CELLID, type=INTEGER1D
Found INODATA CELLIDsize m=3size n=1
CELLID FIRST SET nbound=1
IDM RP LIST varname=HEAD, type=DOUBLE
                            INITIAL TIME STEP SIZE =   1.000000    

 SLN_1 OUTER ITERATION SUMMARY
 ----------------------------------------------------------------------------------------------------------
                                OUTER      INNER                    STEP   MAXIMUM CHANGE MODEL-(CELLID) OR
 OUTER ITERATION STEP       ITERATION  ITERATION  MAXIMUM CHANGE SUCCESS             MODEL-PACKAGE-(NUMBER)
 ----------------------------------------------------------------------------------------------------------
 Model                              1         10       526.09315                              1_GWF-(1,3,3)
 Model                              2          1 -2.16004992E-12       *                      1_GWF-(1,3,3)
 ----------------------------------------------------------------------------------------------------------


 2 CALLS TO NUMERICAL SOLUTION IN TIME STEP 1 STRESS PERIOD 1
 11 TOTAL ITERATIONS

 SLN_1 INNER ITERATION SUMMARY
 --------------------------------------------------------------------------------------------------------------------------------------
      TOTAL      OUTER      INNER                                                            MAXIMUM                                   
  ITERATION  ITERATION  ITERATION  MAXIMUM CHANGE      MAXIMUM CHANGE MODEL-(CELLID)        RESIDUAL    MAXIMUM RESIDUAL MODEL-(CELLID)
 --------------------------------------------------------------------------------------------------------------------------------------
          1          1          1       502.80949                      1_GWF-(1,3,3)      -3.1080829                      1_GWF-(2,3,2)
          2          1          2       21.395628                      1_GWF-(1,2,3)     -0.25310353                      1_GWF-(2,3,3)
          3          1          3       2.5239279                      1_GWF-(1,3,3) -3.43324668E-02                      1_GWF-(2,2,3)
          4          1          4     -0.69758972                      1_GWF-(1,2,3) -3.70113883E-03                      1_GWF-(1,3,3)
          5          1          5  7.99908961E-02                      1_GWF-(1,3,3) -9.50901370E-05                      1_GWF-(2,2,3)
          6          1          6 -1.66550535E-03                      1_GWF-(1,3,3) -8.63059126E-06                      1_GWF-(1,3,3)
          7          1          7  1.64469559E-04                      1_GWF-(1,3,3)  8.91964544E-08                      1_GWF-(1,3,3)
          8          1          8 -1.29162721E-06                      1_GWF-(1,3,3)  3.96607837E-09                      1_GWF-(1,3,3)
          9          1          9 -4.96159813E-09                      1_GWF-(1,3,3) -1.23655123E-10                      1_GWF-(2,4,4)
         10          1         10  2.32823912E-10                      1_GWF-(1,2,3) -2.42451408E-10                      1_GWF-(2,4,4)
         11          2          1 -2.20952007E-12                      1_GWF-(1,2,3) -2.41277922E-10                      1_GWF-(2,4,4)
 --------------------------------------------------------------------------------------------------------------------------------------




 Solution SLN_1 summary
 ----------------------------------------------------------------------
 Total formulate time:  0.40000000000001840E-4 seconds
 Total solution time:   0.47999999999997697E-4 seconds


 DETAILED INFORMATION ON VARIABLES STORED IN THE MEMORY MANAGER
 -----------------------------------------------------------------------------------------------------------------------------------------------------------------------------
 ORIGIN                                             VARIABLE NAME    DATA TYPE             NUMBER OF ITEMS ASSOCIATED VARIABLE                                                
 -----------------------------------------------------------------------------------------------------------------------------------------------------------------------------
 __INPUT__/SIM/NAM                                  TDIS6            STRING LEN=300                      1 --                                                                 
 __INPUT__/SIM/NAM                                  MTYPE            STRING LEN=300                      1 --                                                                 
 __INPUT__/SIM/NAM                                  MFNAME           STRING LEN=300                      1 --                                                                 
 __INPUT__/SIM/NAM                                  MNAME            STRING LEN=300                      1 --                                                                 
 __INPUT__/SIM/NAM                                  EXGTYPE          STRING LEN=300                      0 --                                                                 
 __INPUT__/SIM/NAM                                  EXGFILE          STRING LEN=300                      0 --                                                                 
 __INPUT__/SIM/NAM                                  EXGMNAMEA        STRING LEN=300                      0 --                                                                 
 __INPUT__/SIM/NAM                                  EXGMNAMEB        STRING LEN=300                      0 --                                                                 
 __INPUT__/SIM/NAM                                  SOLUTIONGROUPNUM INTEGER                             1 --                                                                 
 __INPUT__/SIM/NAM                                  SLNTYPE          STRING LEN=300                      1 --                                                                 
 __INPUT__/SIM/NAM                                  SLNFNAME         STRING LEN=300                      1 --                                                                 
 __INPUT__/SIM/NAM                                  SLNMNAMES        STRING LEN=300                      1 --                                                                 
 __INPUT__/SIM/NAM                                  CONTINUE         INTEGER                             1 --                                                                 
 __INPUT__/SIM/NAM                                  NOCHECK          INTEGER                             1 --                                                                 
 __INPUT__/SIM/NAM                                  PRMEM            STRING LEN=300                      1 --                                                                 
 __INPUT__/SIM/NAM                                  MAXERRORS        INTEGER                             1 --                                                                 
 __INPUT__/SIM/NAM                                  PRINT_INPUT      INTEGER                             1 --                                                                 
 __INPUT__/SIM/NAM                                  MXITER           INTEGER                             1 --                                                                 
 __INPUT__/SIM                                      NUMMODELS        INTEGER                             1 --                                                                 
 __INPUT__/SIM                                      NUMEXCHANGES     INTEGER                             1 --                                                                 
 __INPUT__/RCH/NAM                                  SAVE_FLOWS       INTEGER                             1 --                                                                 
 __INPUT__/RCH/NAM                                  FTYPE            STRING LEN=300                      6 --                                                                 
 __INPUT__/RCH/NAM                                  FNAME            STRING LEN=300                      6 --                                                                 
 __INPUT__/RCH/NAM                                  PNAME            STRING LEN=300                      6 --                                                                 
 __INPUT__/RCH                                      PKGTYPES         STRING LEN=7                        6 --                                                                 
 __INPUT__/RCH                                      PKGNAMES         STRING LEN=16                       6 --                                                                 
 __INPUT__/RCH                                      MEMPATHS         STRING LEN=50                       6 --                                                                 
 __INPUT__/RCH                                      INUNITS          INTEGER                             6 --                                                                 
 __INPUT__/RCH/DIS                                  INPUT_FNAME      STRING LEN=300                      1 --                                                                 
 __INPUT__/RCH/NPF                                  INPUT_FNAME      STRING LEN=300                      1 --                                                                 
 __INPUT__/RCH/CHD_0                                INPUT_FNAME      STRING LEN=300                      1 --                                                                 
 __INPUT__/RCH/RCHA_0                               INPUT_FNAME      STRING LEN=300                      1 --                                                                 
 __INPUT__/RCH/DIS                                  NLAY             INTEGER                             1 --                                                                 
 __INPUT__/RCH/DIS                                  NROW             INTEGER                             1 --                                                                 
 __INPUT__/RCH/DIS                                  NCOL             INTEGER                             1 --                                                                 
 __INPUT__/RCH                                      MODEL_SHAPE      INTEGER                             3 --                                                                 
 __INPUT__/RCH                                      NCELLDIM         INTEGER                             1 --                                                                 
 __INPUT__/RCH/DIS                                  DELR             DOUBLE                              5 --                                                                 
 __INPUT__/RCH/DIS                                  DELC             DOUBLE                              4 --                                                                 
 __INPUT__/RCH/DIS                                  TOP              DOUBLE                             20 --                                                                 
 __INPUT__/RCH/DIS                                  BOTM             DOUBLE                             40 --                                                                 
 __INPUT__/RCH/DIS                                  IDOMAIN          INTEGER                            40 --                                                                 
 __INPUT__/RCH/NPF                                  IPAKCB           INTEGER                             1 --                                                                 
 __INPUT__/RCH/NPF                                  ICELLTYPE        INTEGER                            40 --                                                                 
 __INPUT__/RCH/NPF                                  K                DOUBLE                             40 --                                                                 
 __INPUT__/RCH/RCHA_0                               READASARRAYS     INTEGER                             1 --                                                                 
 __INPUT__/RCH/RCHA_0                               IPRFLOW          INTEGER                             1 --                                                                 
 __INPUT__/RCH/RCHA_0                               NAUX             INTEGER                             1 --                                                                 
 __INPUT__/RCH/RCHA_0                               IPER             INTEGER                             1 --                                                                 
 __INPUT__/RCH/RCHA_0                               IONPER           INTEGER                             1 --                                                                 
 __INPUT__/RCH/RCHA_0                               NBOUND           INTEGER                             1 --                                                                 
 __INPUT__/RCH/RCHA_0                               NCPL             INTEGER                             1 --                                                                 
 __INPUT__/RCH/RCHA_0                               AUXILIARY        STRING LEN=16                       0 --                                                                 
 __INPUT__/RCH/RCHA_0                               CELLID           INTEGER                             0 --                                                                 
 __INPUT__/RCH/RCHA_0                               IRCH             INTEGER                            20 --                                                                 
 __INPUT__/RCH/RCHA_0                               RECHARGE         DOUBLE                             20 --                                                                 
 __INPUT__/RCH/RCHA_0                               BOUNDNAME        STRING LEN=40                       0 --                                                                 
 __INPUT__/RCH/RCHA_0                               AUXVAR           DOUBLE                              0 --                                                                 
 __INPUT__/RCH/RCHA_0                               INIRCH           INTEGER                             1 --                                                                 
 __INPUT__/RCH/RCHA_0                               INRECHARGE       INTEGER                             1 --                                                                 
 __INPUT__/RCH/CHD_0                                NAUX             INTEGER                             1 --                                                                 
 __INPUT__/RCH/CHD_0                                MAXBOUND         INTEGER                             1 --                                                                 
 __INPUT__/RCH/CHD_0                                IPER             INTEGER                             1 --                                                                 
 __INPUT__/RCH/CHD_0                                IONPER           INTEGER                             1 --                                                                 
 __INPUT__/RCH/CHD_0                                NBOUND           INTEGER                             1 --                                                                 
 __INPUT__/RCH/CHD_0                                NCPL             INTEGER                             1 --                                                                 
 __INPUT__/RCH/CHD_0                                AUXILIARY        STRING LEN=16                       0 --                                                                 
 __INPUT__/RCH/CHD_0                                CELLID           INTEGER                             3 --                                                                 
 __INPUT__/RCH/CHD_0                                HEAD             DOUBLE                              1 --                                                                 
 __INPUT__/RCH/CHD_0                                BOUNDNAME        STRING LEN=40                       0 --                                                                 
 __INPUT__/RCH/CHD_0                                AUXVAR           DOUBLE                              0 --                                                                 
 TDIS                                               NPER             INTEGER                             1 --                                                                 
 TDIS                                               ITMUNI           INTEGER                             1 --                                                                 
 TDIS                                               KPER             INTEGER                             1 --                                                                 
 TDIS                                               KSTP             INTEGER                             1 --                                                                 
 TDIS                                               INATS            INTEGER                             1 --                                                                 
 TDIS                                               READNEWDATA      LOGICAL                             1 --                                                                 
 TDIS                                               ENDOFPERIOD      LOGICAL                             1 --                                                                 
 TDIS                                               ENDOFSIMULATION  LOGICAL                             1 --                                                                 
 TDIS                                               DELT             DOUBLE                              1 --                                                                 
 TDIS                                               PERTIM           DOUBLE                              1 --                                                                 
 TDIS                                               TOPERTIM         DOUBLE                              1 --                                                                 
 TDIS                                               TOTIM            DOUBLE                              1 --                                                                 
 TDIS                                               TOTIMC           DOUBLE                              1 --                                                                 
 TDIS                                               DELTSAV          DOUBLE                              1 --                                                                 
 TDIS                                               TOTIMSAV         DOUBLE                              1 --                                                                 
 TDIS                                               PERTIMSAV        DOUBLE                              1 --                                                                 
 TDIS                                               TOTALSIMTIME     DOUBLE                              1 --                                                                 
 TDIS                                               PERLEN           DOUBLE                              1 --                                                                 
 TDIS                                               NSTP             INTEGER                             1 --                                                                 
 TDIS                                               TSMULT           DOUBLE                              1 --                                                                 
 __INPUT__/SIM/NAM                                  MRANKS           INTEGER                             1 --                                                                 
 RCH                                                NAME             STRING LEN=16                       1 --                                                                 
 RCH                                                MACRONYM         STRING LEN=3                        1 --                                                                 
 RCH                                                ID               INTEGER                             1 --                                                                 
 RCH                                                IOUT             INTEGER                             1 --                                                                 
 RCH                                                INEWTON          INTEGER                             1 --                                                                 
 RCH                                                IPRPAK           INTEGER                             1 --                                                                 
 RCH                                                IPRFLOW          INTEGER                             1 --                                                                 
 RCH                                                IPAKCB           INTEGER                             1 --                                                                 
 RCH                                                IDSOLN           INTEGER                             1 --                                                                 
 RCH                                                NEQ              INTEGER                             1 --                                                                 
[...]
 SLN_1                                              HNCG             DOUBLE                            100 --                                                                 
 SLN_1                                              LRCH             INTEGER                           300 --                                                                 
 SLN_1                                              WSAVE            DOUBLE                             21 --                                                                 
 SLN_1                                              HCHOLD           DOUBLE                             21 --                                                                 
 SLN_1                                              DEOLD            DOUBLE                             21 --                                                                 
 SLN_1                                              CONVMODSTART     INTEGER                             2 --                                                                 
 TMPSLN_1                                           CONVNMOD         INTEGER                             1 --                                                                 
 TMPSLN_1                                           NITERMAX         INTEGER                             1 --                                                                 
 TMPSLN_1                                           ITINNER          INTEGER                         30000 --                                                                 
 TMPSLN_1                                           LOCDV            INTEGER                             1 --                                                                 
 TMPSLN_1                                           DVMAX            DOUBLE                              1 --                                                                 
 TMPSLN_1                                           LOCDR            INTEGER                             1 --                                                                 
 TMPSLN_1                                           DRMAX            DOUBLE                              1 --                                                                 
 TMPSLN_1                                           CONVDVMAX        DOUBLE                          30000 --                                                                 
 TMPSLN_1                                           CONVLOCDV        INTEGER                         30000 --                                                                 
 TMPSLN_1                                           CONVDRMAX        DOUBLE                          30000 --                                                                 
 TMPSLN_1                                           CONVLOCDR        INTEGER                         30000 --                                                                 
 RCH                                                X                DOUBLE                             21 SLN_1/X                                                            
 RCH                                                RHS              DOUBLE                             21 SLN_1/RHS                                                          
 RCH                                                IBOUND           INTEGER                            21 SLN_1/IBOUND                                                       
 SLN_1                                              NROW             INTEGER                             1 --                                                                 
 SLN_1                                              NCOL             INTEGER                             1 --                                                                 
 SLN_1                                              NJA              INTEGER                             1 --                                                                 
 SLN_1                                              IA               INTEGER                            22 --                                                                 
 SLN_1                                              JA               INTEGER                            81 --                                                                 
 SLN_1                                              AMAT             DOUBLE                             81 --                                                                 
 RCH/IC                                             STRT             DOUBLE                             21 --                                                                 
 RCH/RCHA_0                                         NODELIST         INTEGER                            20 --                                                                 
 RCH/RCHA_0                                         NOUPDATEAUXVAR   INTEGER                             0 --                                                                 
 RCH/RCHA_0                                         BOUND            DOUBLE                             20 --                                                                 
 RCH/RCHA_0                                         CONDINPUT        DOUBLE                              0 --                                                                 
 RCH/RCHA_0                                         HCOF             DOUBLE                             20 --                                                                 
 RCH/RCHA_0                                         RHS              DOUBLE                             20 --                                                                 
 RCH/RCHA_0                                         SIMVALS          DOUBLE                             20 --                                                                 
 RCH/RCHA_0                                         SIMTOMVR         DOUBLE                              0 --                                                                 
 RCH/RCHA_0                                         AUXVAR           DOUBLE                              0 --                                                                 
 RCH/RCHA_0                                         BOUNDNAME        STRING LEN=40                       0 --                                                                 
 RCH/RCHA_0                                         BOUNDNAME_CST    STRING LEN=40                       0 --                                                                 
 RCH/RCHA_0                                         CELLID           INTEGER                             0 __INPUT__/RCH/RCHA_0/CELLID                                        
 RCH/RCHA_0                                         BOUNDNAME_IDM    STRING LEN=40                       0 __INPUT__/RCH/RCHA_0/BOUNDNAME                                     
 RCH/RCHA_0                                         AUXVAR_IDM       DOUBLE                              0 __INPUT__/RCH/RCHA_0/AUXVAR                                        
 RCH/RCHA_0                                         RECHARGE         DOUBLE                             20 __INPUT__/RCH/RCHA_0/RECHARGE                                      
 RCH/CHD_0                                          NODELIST         INTEGER                             1 --                                                                 
 RCH/CHD_0                                          NOUPDATEAUXVAR   INTEGER                             0 --                                                                 
 RCH/CHD_0                                          BOUND            DOUBLE                              1 --                                                                 
 RCH/CHD_0                                          CONDINPUT        DOUBLE                              0 --                                                                 
 RCH/CHD_0                                          HCOF             DOUBLE                              1 --                                                                 
 RCH/CHD_0                                          RHS              DOUBLE                              1 --                                                                 
 RCH/CHD_0                                          SIMVALS          DOUBLE                              1 --                                                                 
 RCH/CHD_0                                          SIMTOMVR         DOUBLE                              0 --                                                                 
 RCH/CHD_0                                          AUXVAR           DOUBLE                              0 --                                                                 
 RCH/CHD_0                                          BOUNDNAME        STRING LEN=40                       0 --                                                                 
 RCH/CHD_0                                          BOUNDNAME_CST    STRING LEN=40                       0 --                                                                 
 RCH/CHD_0                                          CELLID           INTEGER                             3 __INPUT__/RCH/CHD_0/CELLID                                         
 RCH/CHD_0                                          BOUNDNAME_IDM    STRING LEN=40                       0 __INPUT__/RCH/CHD_0/BOUNDNAME                                      
 RCH/CHD_0                                          AUXVAR_IDM       DOUBLE                              0 __INPUT__/RCH/CHD_0/AUXVAR                                         
 RCH/CHD_0                                          RATECHDIN        DOUBLE                              1 --                                                                 
 RCH/CHD_0                                          RATECHDOUT       DOUBLE                              1 --                                                                 
 RCH/CHD_0                                          HEAD             DOUBLE                              1 __INPUT__/RCH/CHD_0/HEAD                                           
 SLN_1/IMSLINEAR                                    DVCLOSE          DOUBLE                              1 --                                                                 
 SLN_1/IMSLINEAR                                    RCLOSE           DOUBLE                              1 --                                                                 
 SLN_1/IMSLINEAR                                    ICNVGOPT         INTEGER                             1 --                                                                 
 SLN_1/IMSLINEAR                                    ITER1            INTEGER                             1 --                                                                 
 SLN_1/IMSLINEAR                                    ILINMETH         INTEGER                             1 --                                                                 
 SLN_1/IMSLINEAR                                    ISCL             INTEGER                             1 --                                                                 
 SLN_1/IMSLINEAR                                    IORD             INTEGER                             1 --                                                                 
 SLN_1/IMSLINEAR                                    NORTH            INTEGER                             1 --                                                                 
 SLN_1/IMSLINEAR                                    RELAX            DOUBLE                              1 --                                                                 
 SLN_1/IMSLINEAR                                    LEVEL            INTEGER                             1 --                                                                 
 SLN_1/IMSLINEAR                                    DROPTOL          DOUBLE                              1 --                                                                 
 SLN_1/IMSLINEAR                                    IDFPARAM         INTEGER                             1 --                                                                 
 SLN_1/IMSLINEAR                                    NJA              INTEGER                             1 --                                                                 
 SLN_1/IMSLINEAR                                    IOUT             INTEGER                             1 --                                                                 
 SLN_1/IMSLINEAR                                    IPC              INTEGER                             1 --                                                                 
 SLN_1/IMSLINEAR                                    IACPC            INTEGER                             1 --                                                                 
 SLN_1/IMSLINEAR                                    NITERC           INTEGER                             1 --                                                                 
 SLN_1/IMSLINEAR                                    NIABCGS          INTEGER                             1 --                                                                 
 SLN_1/IMSLINEAR                                    NIAPC            INTEGER                             1 --                                                                 
 SLN_1/IMSLINEAR                                    NJAPC            INTEGER                             1 --                                                                 
 SLN_1/IMSLINEAR                                    EPFACT           DOUBLE                              1 --                                                                 
 SLN_1/IMSLINEAR                                    L2NORM0          DOUBLE                              1 --                                                                 
 SLN_1/IMSLINEAR                                    NJLU             INTEGER                             1 --                                                                 
 SLN_1/IMSLINEAR                                    NJW              INTEGER                             1 --                                                                 
 SLN_1/IMSLINEAR                                    NWLU             INTEGER                             1 --                                                                 
 SLN_1/IMSLINEAR                                    DSCALE           DOUBLE                              1 --                                                                 
 SLN_1/IMSLINEAR                                    DSCALE2          DOUBLE                              1 --                                                                 
 SLN_1/IMSLINEAR                                    IAPC             INTEGER                            22 --                                                                 
 SLN_1/IMSLINEAR                                    JAPC             INTEGER                            81 --                                                                 
 SLN_1/IMSLINEAR                                    APC              DOUBLE                             81 --                                                                 
 SLN_1/IMSLINEAR                                    IW               INTEGER                            21 --                                                                 
 SLN_1/IMSLINEAR                                    W                DOUBLE                             21 --                                                                 
 SLN_1/IMSLINEAR                                    JLU              INTEGER                             1 --                                                                 
 SLN_1/IMSLINEAR                                    JW               INTEGER                             1 --                                                                 
 SLN_1/IMSLINEAR                                    WLU              DOUBLE                              1 --                                                                 
 SLN_1/IMSLINEAR                                    LORDER           INTEGER                             1 --                                                                 
 SLN_1/IMSLINEAR                                    IORDER           INTEGER                             1 --                                                                 
 SLN_1/IMSLINEAR                                    IARO             INTEGER                             2 --                                                                 
 SLN_1/IMSLINEAR                                    JARO             INTEGER                             1 --                                                                 
 SLN_1/IMSLINEAR                                    ARO              DOUBLE                              1 --                                                                 
 SLN_1/IMSLINEAR                                    ID               INTEGER                            21 --                                                                 
 SLN_1/IMSLINEAR                                    D                DOUBLE                             21 --                                                                 
 SLN_1/IMSLINEAR                                    P                DOUBLE                             21 --                                                                 
 SLN_1/IMSLINEAR                                    Q                DOUBLE                             21 --                                                                 
 SLN_1/IMSLINEAR                                    Z                DOUBLE                             21 --                                                                 
 SLN_1/IMSLINEAR                                    T                DOUBLE                             21 --                                                                 
 SLN_1/IMSLINEAR                                    V                DOUBLE                             21 --                                                                 
 SLN_1/IMSLINEAR                                    DHAT             DOUBLE                             21 --                                                                 
 SLN_1/IMSLINEAR                                    PHAT             DOUBLE                             21 --                                                                 
 SLN_1/IMSLINEAR                                    QHAT             DOUBLE                             21 --                                                                 
 -----------------------------------------------------------------------------------------------------------------------------------------------------------------------------



 MEMORY MANAGER TOTAL STORAGE BY DATA TYPE, IN KILOBYTES
 -------------------------------
                    ALLOCATED   
 DATA TYPE           MEMORY     
 -------------------------------
 Character        6.7660000     
 Logical          4.00000000E-02
 Integer          367.35600     
 Real             491.39200     
 -------------------------------
 Total            865.55400     
 Virtual          0.0000000     
 -------------------------------



 Run end date and time (yyyy/mm/dd hh:mm:ss): 2023/10/30  9:10:24
 Elapsed run time:  0.015 Seconds
 Normal termination of simulation.
