 LISTING FILE: P9.LST
                         UNIT   6

 OPENING P9.BAS
 FILE TYPE:BAS   UNIT   1

 OPENING P9.BCF
 FILE TYPE:BCF   UNIT  11

 OPENING P9.WEL
 FILE TYPE:WEL   UNIT  12

 OPENING P9.SIP
 FILE TYPE:SIP   UNIT  13

 OPENING P9.OC
 FILE TYPE:OC   UNIT  14

 OPENING P9.FTL
 FILE TYPE:LMT   UNIT  15
1                                 MODFLOW
      U.S. GEOLOGICAL SURVEY MODULAR FINITE-DIFFERENCE GROUND-WATER FLOW MODEL

 MT3DMS Benchmark Test Problem No. 9                                             
 TRANSPORT IN 2-D FLOW FIELD WITH A LOW-K ZONE                                   
    1 LAYERS        18 ROWS        14 COLUMNS
   1 STRESS PERIOD(S) IN SIMULATION
 MODEL TIME UNIT IS DAYS

 BAS5 -- BASIC MODEL PACKAGE, VERSION 5, 1/1/95 INPUT READ FROM UNIT  1
 ARRAYS RHS AND BUFF WILL SHARE MEMORY
 INITIAL HEAD WILL NOT BE KEPT THROUGHOUT THE SIMULATION, WHICH MEANS
 DRAWDOWN CANNOT BE CALCULATED
       2052 ELEMENTS IN X ARRAY ARE USED BY BAS
       2052 ELEMENTS OF X ARRAY USED OUT OF  999999999

 BCF5 -- BLOCK-CENTERED FLOW PACKAGE, VERSION 5, 9/1/93 INPUT READ FROM UNIT 11
 STEADY-STATE SIMULATION
 HEAD AT CELLS THAT CONVERT TO DRY=  0.10000E+31
 WETTING CAPABILITY IS NOT ACTIVE
      LAYER  LAYER-TYPE CODE     INTERBLOCK T
      --------------------------------------------
         1            0          0 -- HARMONIC    
          1 ELEMENTS IN X ARRAY ARE USED BY BCF
       2053 ELEMENTS OF X ARRAY USED OUT OF  999999999

 WEL5 -- WELL PACKAGE, VERSION 5, 9/1/93 INPUT READ FROM UNIT 12
 MAXIMUM OF    2 WELLS
          8 ELEMENTS IN X ARRAY ARE USED BY WEL
       2061 ELEMENTS OF X ARRAY USED OUT OF  999999999

 SIP5 -- STRONGLY IMPLICIT PROCEDURE SOLUTION PACKAGE
                    VERSION 5, 9/1/93 INPUT READ FROM UNIT 13
 MAXIMUM OF  50 ITERATIONS ALLOWED FOR CLOSURE
  5 ITERATION PARAMETERS
       1213 ELEMENTS IN X ARRAY ARE USED BY SIP
       3274 ELEMENTS OF X ARRAY USED OUT OF  999999999
1
 MT3DMS Benchmark Test Problem No. 9                                             
 TRANSPORT IN 2-D FLOW FIELD WITH A LOW-K ZONE                                   



                     BOUNDARY ARRAY FOR LAYER   1
 READING ON UNIT   1 WITH FORMAT: (14I2)              

 AQUIFER HEAD WILL BE SET TO  999.99     AT ALL NO-FLOW NODES (IBOUND=0).



                       INITIAL HEAD FOR LAYER   1
 READING ON UNIT   1 WITH FORMAT: (14F6.0)            

           1       2       3       4       5       6       7       8       9      10      11      12      13      14
 ...................................................................................................................
   1   250.00  250.00  250.00  250.00  250.00  250.00  250.00  250.00  250.00  250.00  250.00  250.00  250.00  250.00
   2   250.00  250.00  250.00  250.00  250.00  250.00  250.00  250.00  250.00  250.00  250.00  250.00  250.00  250.00
   3   250.00  250.00  250.00  250.00  250.00  250.00  250.00  250.00  250.00  250.00  250.00  250.00  250.00  250.00
   4   250.00  250.00  250.00  250.00  250.00  250.00  250.00  250.00  250.00  250.00  250.00  250.00  250.00  250.00
   5   250.00  250.00  250.00  250.00  250.00  250.00  250.00  250.00  250.00  250.00  250.00  250.00  250.00  250.00
   6   250.00  250.00  250.00  250.00  250.00  250.00  250.00  250.00  250.00  250.00  250.00  250.00  250.00  250.00
   7   250.00  250.00  250.00  250.00  250.00  250.00  250.00  250.00  250.00  250.00  250.00  250.00  250.00  250.00
   8   250.00  250.00  250.00  250.00  250.00  250.00  250.00  250.00  250.00  250.00  250.00  250.00  250.00  250.00
   9   250.00  250.00  250.00  250.00  250.00  250.00  250.00  250.00  250.00  250.00  250.00  250.00  250.00  250.00
  10   250.00  250.00  250.00  250.00  250.00  250.00  250.00  250.00  250.00  250.00  250.00  250.00  250.00  250.00
  11   250.00  250.00  250.00  250.00  250.00  250.00  250.00  250.00  250.00  250.00  250.00  250.00  250.00  250.00
  12   250.00  250.00  250.00  250.00  250.00  250.00  250.00  250.00  250.00  250.00  250.00  250.00  250.00  250.00
  13   250.00  250.00  250.00  250.00  250.00  250.00  250.00  250.00  250.00  250.00  250.00  250.00  250.00  250.00
  14   250.00  250.00  250.00  250.00  250.00  250.00  250.00  250.00  250.00  250.00  250.00  250.00  250.00  250.00
  15   250.00  250.00  250.00  250.00  250.00  250.00  250.00  250.00  250.00  250.00  250.00  250.00  250.00  250.00
  16   250.00  250.00  250.00  250.00  250.00  250.00  250.00  250.00  250.00  250.00  250.00  250.00  250.00  250.00
  17   250.00  250.00  250.00  250.00  250.00  250.00  250.00  250.00  250.00  250.00  250.00  250.00  250.00  250.00
  18    20.00   22.50   25.00   27.50   30.00   32.50   35.00   37.50   40.00   42.50   45.00   47.50   50.00   52.50

 OUTPUT CONTROL IS SPECIFIED EVERY TIME STEP
 HEAD PRINT FORMAT CODE IS   4    DRAWDOWN PRINT FORMAT CODE IS   4
 HEADS WILL BE SAVED ON UNIT   0    DRAWDOWNS WILL BE SAVED ON UNIT   0

 COLUMN TO ROW ANISOTROPY =   1.000000    

                     DELR =   100.0000    

                     DELC =   100.0000    



               TRANSMIS. ALONG ROWS FOR LAYER   1
 READING ON UNIT  11 WITH FORMAT: (14F4.0)            

            1           2           3           4           5           6           7           8           9          10
           11          12          13          14
 ........................................................................................................................
   1   1.4740E-03  1.4740E-03  1.4740E-03  1.4740E-03  1.4740E-03  1.4740E-03  1.4740E-03  1.4740E-03  1.4740E-03  1.4740E-03
       1.4740E-03  1.4740E-03  1.4740E-03  1.4740E-03
   2   1.4740E-03  1.4740E-03  1.4740E-03  1.4740E-03  1.4740E-03  1.4740E-03  1.4740E-03  1.4740E-03  1.4740E-03  1.4740E-03
       1.4740E-03  1.4740E-03  1.4740E-03  1.4740E-03
   3   1.4740E-03  1.4740E-03  1.4740E-03  1.4740E-03  1.4740E-03  1.4740E-03  1.4740E-03  1.4740E-03  1.4740E-03  1.4740E-03
       1.4740E-03  1.4740E-03  1.4740E-03  1.4740E-03
   4   1.4740E-03  1.4740E-03  1.4740E-03  1.4740E-03  1.4740E-03  1.4740E-03  1.4740E-03  1.4740E-03  1.4740E-03  1.4740E-03
       1.4740E-03  1.4740E-03  1.4740E-03  1.4740E-03
   5   1.4740E-03  1.4740E-03  1.4740E-03  1.4740E-03  1.4740E-03  1.4740E-03  1.4740E-03  1.4740E-03  1.4740E-03  1.4740E-03
       1.4740E-03  1.4740E-03  1.4740E-03  1.4740E-03
   6   1.4740E-03  1.4740E-06  1.4740E-06  1.4740E-06  1.4740E-06  1.4740E-06  1.4740E-06  1.4740E-06  1.4740E-03  1.4740E-03
       1.4740E-03  1.4740E-03  1.4740E-03  1.4740E-03
   7   1.4740E-03  1.4740E-06  1.4740E-06  1.4740E-06  1.4740E-06  1.4740E-06  1.4740E-06  1.4740E-06  1.4740E-03  1.4740E-03
       1.4740E-03  1.4740E-03  1.4740E-03  1.4740E-03
   8   1.4740E-03  1.4740E-06  1.4740E-06  1.4740E-06  1.4740E-06  1.4740E-06  1.4740E-06  1.4740E-06  1.4740E-03  1.4740E-03
       1.4740E-03  1.4740E-03  1.4740E-03  1.4740E-03
   9   1.4740E-03  1.4740E-03  1.4740E-03  1.4740E-03  1.4740E-03  1.4740E-03  1.4740E-03  1.4740E-03  1.4740E-03  1.4740E-03
       1.4740E-03  1.4740E-03  1.4740E-03  1.4740E-03
  10   1.4740E-03  1.4740E-03  1.4740E-03  1.4740E-03  1.4740E-03  1.4740E-03  1.4740E-03  1.4740E-03  1.4740E-03  1.4740E-03
       1.4740E-03  1.4740E-03  1.4740E-03  1.4740E-03
  11   1.4740E-03  1.4740E-03  1.4740E-03  1.4740E-03  1.4740E-03  1.4740E-03  1.4740E-03  1.4740E-03  1.4740E-03  1.4740E-03
       1.4740E-03  1.4740E-03  1.4740E-03  1.4740E-03
  12   1.4740E-03  1.4740E-03  1.4740E-03  1.4740E-03  1.4740E-03  1.4740E-03  1.4740E-03  1.4740E-03  1.4740E-03  1.4740E-03
       1.4740E-03  1.4740E-03  1.4740E-03  1.4740E-03
  13   1.4740E-03  1.4740E-03  1.4740E-03  1.4740E-03  1.4740E-03  1.4740E-03  1.4740E-03  1.4740E-03  1.4740E-03  1.4740E-03
       1.4740E-03  1.4740E-03  1.4740E-03  1.4740E-03
  14   1.4740E-03  1.4740E-03  1.4740E-03  1.4740E-03  1.4740E-03  1.4740E-03  1.4740E-03  1.4740E-03  1.4740E-03  1.4740E-03
       1.4740E-03  1.4740E-03  1.4740E-03  1.4740E-03
  15   1.4740E-03  1.4740E-03  1.4740E-03  1.4740E-03  1.4740E-03  1.4740E-03  1.4740E-03  1.4740E-03  1.4740E-03  1.4740E-03
       1.4740E-03  1.4740E-03  1.4740E-03  1.4740E-03
  16   1.4740E-03  1.4740E-03  1.4740E-03  1.4740E-03  1.4740E-03  1.4740E-03  1.4740E-03  1.4740E-03  1.4740E-03  1.4740E-03
       1.4740E-03  1.4740E-03  1.4740E-03  1.4740E-03
  17   1.4740E-03  1.4740E-03  1.4740E-03  1.4740E-03  1.4740E-03  1.4740E-03  1.4740E-03  1.4740E-03  1.4740E-03  1.4740E-03
       1.4740E-03  1.4740E-03  1.4740E-03  1.4740E-03
  18   1.4740E-03  1.4740E-03  1.4740E-03  1.4740E-03  1.4740E-03  1.4740E-03  1.4740E-03  1.4740E-03  1.4740E-03  1.4740E-03
       1.4740E-03  1.4740E-03  1.4740E-03  1.4740E-03



          SOLUTION BY THE STRONGLY IMPLICIT PROCEDURE
          -------------------------------------------
 MAXIMUM ITERATIONS ALLOWED FOR CLOSURE =       50
                 ACCELERATION PARAMETER =     1.0000    
      HEAD CHANGE CRITERION FOR CLOSURE =    0.10000E-03
      SIP HEAD CHANGE PRINTOUT INTERVAL =        1

     5 ITERATION PARAMETERS CALCULATED FROM SPECIFIED WSEED = 0.00100000 :

  0.000000E+00 0.822172E+00 0.968377E+00 0.994377E+00 0.999000E+00
1
                            STRESS PERIOD NO.   1, LENGTH =   1.000000    
                            ----------------------------------------------

                              NUMBER OF TIME STEPS =     1

                               MULTIPLIER FOR DELT =     1.000

                            INITIAL TIME STEP SIZE =   1.000000    


     2 WELLS

 LAYER   ROW   COL   STRESS RATE   WELL NO.
 ------------------------------------------
    1      4     7    0.10000E-02      1
    1     11     7   -0.18900E-01      2

    26 ITERATIONS FOR TIME STEP   1 IN STRESS PERIOD  1

 MAXIMUM HEAD CHANGE FOR EACH ITERATION:

    HEAD CHANGE   HEAD CHANGE   HEAD CHANGE   HEAD CHANGE   HEAD CHANGE
  LAYER,ROW,COL LAYER,ROW,COL LAYER,ROW,COL LAYER,ROW,COL LAYER,ROW,COL
 ----------------------------------------------------------------------
     -139.4        -72.18        -71.68        -81.49        -16.79    
  (  1, 17,  1) (  1, 16,  2) (  1, 13,  1) (  1, 10,  1) (  1,  5,  9)
      6.395        -2.680        -5.139        -5.026        -1.036    
  (  1,  8,  1) (  1,  6,  2) (  1, 10,  3) (  1,  8,  1) (  1,  6,  2)
     0.6663        0.3087        0.1644        0.1292       -0.4900E-01
  (  1,  7,  1) (  1,  7,  2) (  1,  7,  2) (  1,  9,  1) (  1,  8,  1)
    -0.3789E-01   -0.1550E-01    0.1354E-01    0.1197E-01    0.3738E-02
  (  1,  6,  1) (  1,  7,  2) (  1,  9,  3) (  1, 10,  7) (  1,  6,  1)
     0.2073E-02    0.5061E-03   -0.5177E-03   -0.3828E-03   -0.1677E-03
  (  1,  7,  1) (  1,  6,  2) (  1,  8,  1) (  1, 10,  1) (  1,  7,  1)
    -0.9737E-04
  (  1,  6,  1)


 HEAD/DRAWDOWN PRINTOUT FLAG = 1     TOTAL BUDGET PRINTOUT FLAG = 0
 CELL-BY-CELL FLOW TERM FLAG = 1

 OUTPUT FLAGS FOR ALL LAYERS ARE THE SAME:
   HEAD    DRAWDOWN  HEAD  DRAWDOWN
 PRINTOUT  PRINTOUT  SAVE    SAVE
 ----------------------------------
     1         0       1       0

 SATURATED THICKNESS AND FLOW TERMS SAVED ON UNIT 15 FOR MT3D BY LINKMT3D PACKAGE 5.0
1
              HEAD IN LAYER  1 AT END OF TIME STEP  1 IN STRESS PERIOD  1
  -----------------------------------------------------------------------

           1       2       3       4       5       6       7       8       9      10      11      12      13      14
 ...................................................................................................................
   1   250.00  250.00  250.00  250.00  250.00  250.00  250.00  250.00  250.00  250.00  250.00  250.00  250.00  250.00
   2   242.73  243.33  244.04  244.51  244.55  244.09  243.13  241.72  240.13  238.79  237.82  237.20  236.85  236.69
   3   234.85  236.55  238.34  239.44  239.59  238.69  236.70  233.61  230.03  227.20  225.30  224.14  223.50  223.22
   4   225.26  229.68  233.32  235.33  235.69  234.39  231.36  226.00  219.17  214.68  212.04  210.57  209.79  209.46
   5   211.26  223.60  229.92  232.88  233.45  231.82  227.66  219.86  205.97  200.31  197.63  196.29  195.64  195.37
   6   184.92  196.72  204.61  207.60  208.32  207.32  204.08  196.06  184.55  182.95  181.87  181.33  181.10  181.02
   7   158.55  158.67  158.96  159.33  159.86  160.61  161.75  163.46  164.69  165.07  165.58  166.05  166.40  166.59
   8   132.18  120.61  113.21  110.92  111.15  113.53  118.84  130.12  144.47  147.06  149.31  150.89  151.88  152.35
   9   105.83   93.68   87.77   85.42   85.71   88.51   94.36  104.74  121.68  129.40  133.72  136.33  137.86  138.58
  10    91.63   87.40   84.15   82.73   83.14   85.40   89.79   98.14  108.09  115.15  119.82  122.85  124.67  125.53
  11    81.66   80.13   78.71   78.19   78.75   80.16   81.24   89.95   97.41  103.28  107.58  110.57  112.44  113.34
  12    73.22   72.75   72.38   72.57   73.50   75.24   77.90   83.00   88.31   92.96   96.67   99.39  101.17  102.05
  13    65.26   65.27   65.51   66.19   67.46   69.40   72.13   75.85   79.86   83.59   86.74   89.17   90.81   91.63
  14    57.28   57.56   58.18   59.22   60.74   62.77   65.35   68.42   71.69   74.81   77.54   79.73   81.26   82.05
  15    49.02   49.51   50.44   51.78   53.50   55.61   58.07   60.81   63.65   66.41   68.89   70.95   72.45   73.25
  16    40.27   41.02   42.30   43.94   45.88   48.09   50.51   53.08   55.71   58.28   60.66   62.72   64.33   65.26
  17    30.76   32.02   33.78   35.81   38.01   40.35   42.79   45.30   47.84   50.34   52.74   54.96   56.87   58.21
  18    20.00   22.50   25.00   27.50   30.00   32.50   35.00   37.50   40.00   42.50   45.00   47.50   50.00   52.50
1
  VOLUMETRIC BUDGET FOR ENTIRE MODEL AT END OF TIME STEP  1 IN STRESS PERIOD  1
  -----------------------------------------------------------------------------

     CUMULATIVE VOLUMES      L**3       RATES FOR THIS TIME STEP      L**3/T
     ------------------                 ------------------------

           IN:                                      IN:
           ---                                      ---
       CONSTANT HEAD =           0.1834         CONSTANT HEAD =           0.1834
               WELLS =       1.0000E-03                 WELLS =       1.0000E-03

            TOTAL IN =           0.1844              TOTAL IN =           0.1844

          OUT:                                     OUT:
          ----                                     ----
       CONSTANT HEAD =           0.1655         CONSTANT HEAD =           0.1655
               WELLS =       1.8900E-02                 WELLS =       1.8900E-02

           TOTAL OUT =           0.1844             TOTAL OUT =           0.1844

            IN - OUT =       5.0175E-08              IN - OUT =       5.0175E-08

 PERCENT DISCREPANCY =           0.00     PERCENT DISCREPANCY =           0.00






          TIME SUMMARY AT END OF TIME STEP  1 IN STRESS PERIOD  1
                    SECONDS     MINUTES      HOURS       DAYS        YEARS
                    -----------------------------------------------------------
   TIME STEP LENGTH  86400.      1440.0      24.000      1.0000     2.73785E-03
 STRESS PERIOD TIME  86400.      1440.0      24.000      1.0000     2.73785E-03
         TOTAL TIME  86400.      1440.0      24.000      1.0000     2.73785E-03
1
