 LISTING FILE: P10.LST
                         UNIT   6

 OPENING P10.BAS
 FILE TYPE:BAS   UNIT   1

 OPENING P10.BCF
 FILE TYPE:BCF   UNIT  11

 OPENING P10.WEL
 FILE TYPE:WEL   UNIT  12

 OPENING P10.RCH
 FILE TYPE:RCH   UNIT  13

 OPENING P10.PCG
 FILE TYPE:PCG   UNIT  14

 OPENING P10.OC
 FILE TYPE:OC   UNIT  15

 OPENING P10.FTL
 FILE TYPE:LMT   UNIT  16

 OPENING P10.UFH
 FILE TYPE:DATA(BINARY)   UNIT  33
1                                 MODFLOW
      U.S. GEOLOGICAL SURVEY MODULAR FINITE-DIFFERENCE GROUND-WATER FLOW MODEL

 MT3DMS Benchmark Test Problem #10                                               
 3-D Flow and Transport                                                          
    4 LAYERS        61 ROWS        40 COLUMNS
   1 STRESS PERIOD(S) IN SIMULATION
 MODEL TIME UNIT IS DAYS

 BAS5 -- BASIC MODEL PACKAGE, VERSION 5, 1/1/95 INPUT READ FROM UNIT  1
 ARRAYS RHS AND BUFF WILL HAVE SEPARATE MEMORY ALLOCATIONS
 INITIAL HEAD WILL BE KEPT THROUGHOUT THE SIMULATION
     105037 ELEMENTS IN X ARRAY ARE USED BY BAS
     105037 ELEMENTS OF X ARRAY USED OUT OF  999999999

 BCF5 -- BLOCK-CENTERED FLOW PACKAGE, VERSION 5, 9/1/93 INPUT READ FROM UNIT 11
 STEADY-STATE SIMULATION
 HEAD AT CELLS THAT CONVERT TO DRY=  0.10000E+31
 WETTING CAPABILITY IS NOT ACTIVE
      LAYER  LAYER-TYPE CODE     INTERBLOCK T
      --------------------------------------------
         1            0          0 -- HARMONIC    
         2            0          0 -- HARMONIC    
         3            0          0 -- HARMONIC    
         4            0          0 -- HARMONIC    
          4 ELEMENTS IN X ARRAY ARE USED BY BCF
     105041 ELEMENTS OF X ARRAY USED OUT OF  999999999

 WEL5 -- WELL PACKAGE, VERSION 5, 9/1/93 INPUT READ FROM UNIT 12
 MAXIMUM OF   20 WELLS
         80 ELEMENTS IN X ARRAY ARE USED BY WEL
     105121 ELEMENTS OF X ARRAY USED OUT OF  999999999

 RCH5 -- RECHARGE PACKAGE, VERSION 5, 6/1/95 INPUT READ FROM UNIT 13
 OPTION 3 -- RECHARGE TO HIGHEST ACTIVE NODE IN EACH VERTICAL COLUMN
       4880 ELEMENTS IN X ARRAY ARE USED BY RCH
     110001 ELEMENTS OF X ARRAY USED OUT OF  999999999
0PCG2 -- CONJUGATE GRADIENT SOLUTION PACKAGE, VERSION 2.1, 6/1/95
 MAXIMUM OF   1 CALLS OF SOLUTION ROUTINE
 MAXIMUM OF  50 INTERNAL ITERATIONS PER CALL TO SOLUTION ROUTINE
 MATRIX PRECONDITIONING TYPE :    1
   39490 ELEMENTS IN X ARRAY ARE USED BY PCG
  149491 ELEMENTS OF X ARRAY USED OUT OF 999999999
1
 MT3DMS Benchmark Test Problem #10                                               
 3-D Flow and Transport                                                          



                     BOUNDARY ARRAY FOR LAYER   1
 READING ON UNIT   1 WITH FORMAT: (40i2)              

       1  2  3  4  5  6  7  8  9 10 11 12 13 14 15 16 17 18 19 20 21 22 23 24 25 26 27 28 29 30 31 32 33 34 35 36 37 38 39 40
 ............................................................................................................................
   1  -1 -1 -1 -1 -1 -1 -1 -1 -1 -1 -1 -1 -1 -1 -1 -1 -1 -1 -1 -1 -1 -1 -1 -1 -1 -1 -1 -1 -1 -1 -1 -1 -1 -1 -1 -1 -1 -1 -1 -1
   2  -1  1  1  1  1  1  1  1  1  1  1  1  1  1  1  1  1  1  1  1  1  1  1  1  1  1  1  1  1  1  1  1  1  1  1  1  1  1  1 -1
   3  -1  1  1  1  1  1  1  1  1  1  1  1  1  1  1  1  1  1  1  1  1  1  1  1  1  1  1  1  1  1  1  1  1  1  1  1  1  1  1 -1
   4  -1  1  1  1  1  1  1  1  1  1  1  1  1  1  1  1  1  1  1  1  1  1  1  1  1  1  1  1  1  1  1  1  1  1  1  1  1  1  1 -1
   5  -1  1  1  1  1  1  1  1  1  1  1  1  1  1  1  1  1  1  1  1  1  1  1  1  1  1  1  1  1  1  1  1  1  1  1  1  1  1  1 -1
   6  -1  1  1  1  1  1  1  1  1  1  1  1  1  1  1  1  1  1  1  1  1  1  1  1  1  1  1  1  1  1  1  1  1  1  1  1  1  1  1 -1
   7  -1  1  1  1  1  1  1  1  1  1  1  1  1  1  1  1  1  1  1  1  1  1  1  1  1  1  1  1  1  1  1  1  1  1  1  1  1  1  1 -1
   8  -1  1  1  1  1  1  1  1  1  1  1  1  1  1  1  1  1  1  1  1  1  1  1  1  1  1  1  1  1  1  1  1  1  1  1  1  1  1  1 -1
   9  -1  1  1  1  1  1  1  1  1  1  1  1  1  1  1  1  1  1  1  1  1  1  1  1  1  1  1  1  1  1  1  1  1  1  1  1  1  1  1 -1
  10  -1  1  1  1  1  1  1  1  1  1  1  1  1  1  1  1  1  1  1  1  1  1  1  1  1  1  1  1  1  1  1  1  1  1  1  1  1  1  1 -1
  11  -1  1  1  1  1  1  1  1  1  1  1  1  1  1  1  1  1  1  1  1  1  1  1  1  1  1  1  1  1  1  1  1  1  1  1  1  1  1  1 -1
  12  -1  1  1  1  1  1  1  1  1  1  1  1  1  1  1  1  1  1  1  1  1  1  1  1  1  1  1  1  1  1  1  1  1  1  1  1  1  1  1 -1
  13  -1  1  1  1  1  1  1  1  1  1  1  1  1  1  1  1  1  1  1  1  1  1  1  1  1  1  1  1  1  1  1  1  1  1  1  1  1  1  1 -1
  14  -1  1  1  1  1  1  1  1  1  1  1  1  1  1  1  1  1  1  1  1  1  1  1  1  1  1  1  1  1  1  1  1  1  1  1  1  1  1  1 -1
  15  -1  1  1  1  1  1  1  1  1  1  1  1  1  1  1  1  1  1  1  1  1  1  1  1  1  1  1  1  1  1  1  1  1  1  1  1  1  1  1 -1
  16  -1  1  1  1  1  1  1  1  1  1  1  1  1  1  1  1  1  1  1  1  1  1  1  1  1  1  1  1  1  1  1  1  1  1  1  1  1  1  1 -1
  17  -1  1  1  1  1  1  1  1  1  1  1  1  1  1  1  1  1  1  1  1  1  1  1  1  1  1  1  1  1  1  1  1  1  1  1  1  1  1  1 -1
  18  -1  1  1  1  1  1  1  1  1  1  1  1  1  1  1  1  1  1  1  1  1  1  1  1  1  1  1  1  1  1  1  1  1  1  1  1  1  1  1 -1
  19  -1  1  1  1  1  1  1  1  1  1  1  1  1  1  1  1  1  1  1  1  1  1  1  1  1  1  1  1  1  1  1  1  1  1  1  1  1  1  1 -1
  20  -1  1  1  1  1  1  1  1  1  1  1  1  1  1  1  1  1  1  1  1  1  1  1  1  1  1  1  1  1  1  1  1  1  1  1  1  1  1  1 -1
  21  -1  1  1  1  1  1  1  1  1  1  1  1  1  1  1  1  1  1  1  1  1  1  1  1  1  1  1  1  1  1  1  1  1  1  1  1  1  1  1 -1
  22  -1  1  1  1  1  1  1  1  1  1  1  1  1  1  1  1  1  1  1  1  1  1  1  1  1  1  1  1  1  1  1  1  1  1  1  1  1  1  1 -1
  23  -1  1  1  1  1  1  1  1  1  1  1  1  1  1  1  1  1  1  1  1  1  1  1  1  1  1  1  1  1  1  1  1  1  1  1  1  1  1  1 -1
  24  -1  1  1  1  1  1  1  1  1  1  1  1  1  1  1  1  1  1  1  1  1  1  1  1  1  1  1  1  1  1  1  1  1  1  1  1  1  1  1 -1
  25  -1  1  1  1  1  1  1  1  1  1  1  1  1  1  1  1  1  1  1  1  1  1  1  1  1  1  1  1  1  1  1  1  1  1  1  1  1  1  1 -1
  26  -1  1  1  1  1  1  1  1  1  1  1  1  1  1  1  1  1  1  1  1  1  1  1  1  1  1  1  1  1  1  1  1  1  1  1  1  1  1  1 -1
  27  -1  1  1  1  1  1  1  1  1  1  1  1  1  1  1  1  1  1  1  1  1  1  1  1  1  1  1  1  1  1  1  1  1  1  1  1  1  1  1 -1
  28  -1  1  1  1  1  1  1  1  1  1  1  1  1  1  1  1  1  1  1  1  1  1  1  1  1  1  1  1  1  1  1  1  1  1  1  1  1  1  1 -1
  29  -1  1  1  1  1  1  1  1  1  1  1  1  1  1  1  1  1  1  1  1  1  1  1  1  1  1  1  1  1  1  1  1  1  1  1  1  1  1  1 -1
  30  -1  1  1  1  1  1  1  1  1  1  1  1  1  1  1  1  1  1  1  1  1  1  1  1  1  1  1  1  1  1  1  1  1  1  1  1  1  1  1 -1
  31  -1  1  1  1  1  1  1  1  1  1  1  1  1  1  1  1  1  1  1  1  1  1  1  1  1  1  1  1  1  1  1  1  1  1  1  1  1  1  1 -1
  32  -1  1  1  1  1  1  1  1  1  1  1  1  1  1  1  1  1  1  1  1  1  1  1  1  1  1  1  1  1  1  1  1  1  1  1  1  1  1  1 -1
  33  -1  1  1  1  1  1  1  1  1  1  1  1  1  1  1  1  1  1  1  1  1  1  1  1  1  1  1  1  1  1  1  1  1  1  1  1  1  1  1 -1
  34  -1  1  1  1  1  1  1  1  1  1  1  1  1  1  1  1  1  1  1  1  1  1  1  1  1  1  1  1  1  1  1  1  1  1  1  1  1  1  1 -1
  35  -1  1  1  1  1  1  1  1  1  1  1  1  1  1  1  1  1  1  1  1  1  1  1  1  1  1  1  1  1  1  1  1  1  1  1  1  1  1  1 -1
  36  -1  1  1  1  1  1  1  1  1  1  1  1  1  1  1  1  1  1  1  1  1  1  1  1  1  1  1  1  1  1  1  1  1  1  1  1  1  1  1 -1
  37  -1  1  1  1  1  1  1  1  1  1  1  1  1  1  1  1  1  1  1  1  1  1  1  1  1  1  1  1  1  1  1  1  1  1  1  1  1  1  1 -1
  38  -1  1  1  1  1  1  1  1  1  1  1  1  1  1  1  1  1  1  1  1  1  1  1  1  1  1  1  1  1  1  1  1  1  1  1  1  1  1  1 -1
  39  -1  1  1  1  1  1  1  1  1  1  1  1  1  1  1  1  1  1  1  1  1  1  1  1  1  1  1  1  1  1  1  1  1  1  1  1  1  1  1 -1
  40  -1  1  1  1  1  1  1  1  1  1  1  1  1  1  1  1  1  1  1  1  1  1  1  1  1  1  1  1  1  1  1  1  1  1  1  1  1  1  1 -1
  41  -1  1  1  1  1  1  1  1  1  1  1  1  1  1  1  1  1  1  1  1  1  1  1  1  1  1  1  1  1  1  1  1  1  1  1  1  1  1  1 -1
  42  -1  1  1  1  1  1  1  1  1  1  1  1  1  1  1  1  1  1  1  1  1  1  1  1  1  1  1  1  1  1  1  1  1  1  1  1  1  1  1 -1
  43  -1  1  1  1  1  1  1  1  1  1  1  1  1  1  1  1  1  1  1  1  1  1  1  1  1  1  1  1  1  1  1  1  1  1  1  1  1  1  1 -1
  44  -1  1  1  1  1  1  1  1  1  1  1  1  1  1  1  1  1  1  1  1  1  1  1  1  1  1  1  1  1  1  1  1  1  1  1  1  1  1  1 -1
  45  -1  1  1  1  1  1  1  1  1  1  1  1  1  1  1  1  1  1  1  1  1  1  1  1  1  1  1  1  1  1  1  1  1  1  1  1  1  1  1 -1
  46  -1  1  1  1  1  1  1  1  1  1  1  1  1  1  1  1  1  1  1  1  1  1  1  1  1  1  1  1  1  1  1  1  1  1  1  1  1  1  1 -1
  47  -1  1  1  1  1  1  1  1  1  1  1  1  1  1  1  1  1  1  1  1  1  1  1  1  1  1  1  1  1  1  1  1  1  1  1  1  1  1  1 -1
  48  -1  1  1  1  1  1  1  1  1  1  1  1  1  1  1  1  1  1  1  1  1  1  1  1  1  1  1  1  1  1  1  1  1  1  1  1  1  1  1 -1
  49  -1  1  1  1  1  1  1  1  1  1  1  1  1  1  1  1  1  1  1  1  1  1  1  1  1  1  1  1  1  1  1  1  1  1  1  1  1  1  1 -1
  50  -1  1  1  1  1  1  1  1  1  1  1  1  1  1  1  1  1  1  1  1  1  1  1  1  1  1  1  1  1  1  1  1  1  1  1  1  1  1  1 -1
  51  -1  1  1  1  1  1  1  1  1  1  1  1  1  1  1  1  1  1  1  1  1  1  1  1  1  1  1  1  1  1  1  1  1  1  1  1  1  1  1 -1
  52  -1  1  1  1  1  1  1  1  1  1  1  1  1  1  1  1  1  1  1  1  1  1  1  1  1  1  1  1  1  1  1  1  1  1  1  1  1  1  1 -1
  53  -1  1  1  1  1  1  1  1  1  1  1  1  1  1  1  1  1  1  1  1  1  1  1  1  1  1  1  1  1  1  1  1  1  1  1  1  1  1  1 -1
  54  -1  1  1  1  1  1  1  1  1  1  1  1  1  1  1  1  1  1  1  1  1  1  1  1  1  1  1  1  1  1  1  1  1  1  1  1  1  1  1 -1
  55  -1  1  1  1  1  1  1  1  1  1  1  1  1  1  1  1  1  1  1  1  1  1  1  1  1  1  1  1  1  1  1  1  1  1  1  1  1  1  1 -1
  56  -1  1  1  1  1  1  1  1  1  1  1  1  1  1  1  1  1  1  1  1  1  1  1  1  1  1  1  1  1  1  1  1  1  1  1  1  1  1  1 -1
  57  -1  1  1  1  1  1  1  1  1  1  1  1  1  1  1  1  1  1  1  1  1  1  1  1  1  1  1  1  1  1  1  1  1  1  1  1  1  1  1 -1
  58  -1  1  1  1  1  1  1  1  1  1  1  1  1  1  1  1  1  1  1  1  1  1  1  1  1  1  1  1  1  1  1  1  1  1  1  1  1  1  1 -1
  59  -1  1  1  1  1  1  1  1  1  1  1  1  1  1  1  1  1  1  1  1  1  1  1  1  1  1  1  1  1  1  1  1  1  1  1  1  1  1  1 -1
  60  -1  1  1  1  1  1  1  1  1  1  1  1  1  1  1  1  1  1  1  1  1  1  1  1  1  1  1  1  1  1  1  1  1  1  1  1  1  1  1 -1
  61  -1 -1 -1 -1 -1 -1 -1 -1 -1 -1 -1 -1 -1 -1 -1 -1 -1 -1 -1 -1 -1 -1 -1 -1 -1 -1 -1 -1 -1 -1 -1 -1 -1 -1 -1 -1 -1 -1 -1 -1



                     BOUNDARY ARRAY FOR LAYER   2
 READING ON UNIT   1 WITH FORMAT: (40i2)              

       1  2  3  4  5  6  7  8  9 10 11 12 13 14 15 16 17 18 19 20 21 22 23 24 25 26 27 28 29 30 31 32 33 34 35 36 37 38 39 40
 ............................................................................................................................
   1  -1 -1 -1 -1 -1 -1 -1 -1 -1 -1 -1 -1 -1 -1 -1 -1 -1 -1 -1 -1 -1 -1 -1 -1 -1 -1 -1 -1 -1 -1 -1 -1 -1 -1 -1 -1 -1 -1 -1 -1
   2  -1  1  1  1  1  1  1  1  1  1  1  1  1  1  1  1  1  1  1  1  1  1  1  1  1  1  1  1  1  1  1  1  1  1  1  1  1  1  1 -1
   3  -1  1  1  1  1  1  1  1  1  1  1  1  1  1  1  1  1  1  1  1  1  1  1  1  1  1  1  1  1  1  1  1  1  1  1  1  1  1  1 -1
   4  -1  1  1  1  1  1  1  1  1  1  1  1  1  1  1  1  1  1  1  1  1  1  1  1  1  1  1  1  1  1  1  1  1  1  1  1  1  1  1 -1
   5  -1  1  1  1  1  1  1  1  1  1  1  1  1  1  1  1  1  1  1  1  1  1  1  1  1  1  1  1  1  1  1  1  1  1  1  1  1  1  1 -1
   6  -1  1  1  1  1  1  1  1  1  1  1  1  1  1  1  1  1  1  1  1  1  1  1  1  1  1  1  1  1  1  1  1  1  1  1  1  1  1  1 -1
   7  -1  1  1  1  1  1  1  1  1  1  1  1  1  1  1  1  1  1  1  1  1  1  1  1  1  1  1  1  1  1  1  1  1  1  1  1  1  1  1 -1
   8  -1  1  1  1  1  1  1  1  1  1  1  1  1  1  1  1  1  1  1  1  1  1  1  1  1  1  1  1  1  1  1  1  1  1  1  1  1  1  1 -1
   9  -1  1  1  1  1  1  1  1  1  1  1  1  1  1  1  1  1  1  1  1  1  1  1  1  1  1  1  1  1  1  1  1  1  1  1  1  1  1  1 -1
  10  -1  1  1  1  1  1  1  1  1  1  1  1  1  1  1  1  1  1  1  1  1  1  1  1  1  1  1  1  1  1  1  1  1  1  1  1  1  1  1 -1
  11  -1  1  1  1  1  1  1  1  1  1  1  1  1  1  1  1  1  1  1  1  1  1  1  1  1  1  1  1  1  1  1  1  1  1  1  1  1  1  1 -1
  12  -1  1  1  1  1  1  1  1  1  1  1  1  1  1  1  1  1  1  1  1  1  1  1  1  1  1  1  1  1  1  1  1  1  1  1  1  1  1  1 -1
  13  -1  1  1  1  1  1  1  1  1  1  1  1  1  1  1  1  1  1  1  1  1  1  1  1  1  1  1  1  1  1  1  1  1  1  1  1  1  1  1 -1
  14  -1  1  1  1  1  1  1  1  1  1  1  1  1  1  1  1  1  1  1  1  1  1  1  1  1  1  1  1  1  1  1  1  1  1  1  1  1  1  1 -1
  15  -1  1  1  1  1  1  1  1  1  1  1  1  1  1  1  1  1  1  1  1  1  1  1  1  1  1  1  1  1  1  1  1  1  1  1  1  1  1  1 -1
  16  -1  1  1  1  1  1  1  1  1  1  1  1  1  1  1  1  1  1  1  1  1  1  1  1  1  1  1  1  1  1  1  1  1  1  1  1  1  1  1 -1
  17  -1  1  1  1  1  1  1  1  1  1  1  1  1  1  1  1  1  1  1  1  1  1  1  1  1  1  1  1  1  1  1  1  1  1  1  1  1  1  1 -1
  18  -1  1  1  1  1  1  1  1  1  1  1  1  1  1  1  1  1  1  1  1  1  1  1  1  1  1  1  1  1  1  1  1  1  1  1  1  1  1  1 -1
  19  -1  1  1  1  1  1  1  1  1  1  1  1  1  1  1  1  1  1  1  1  1  1  1  1  1  1  1  1  1  1  1  1  1  1  1  1  1  1  1 -1
  20  -1  1  1  1  1  1  1  1  1  1  1  1  1  1  1  1  1  1  1  1  1  1  1  1  1  1  1  1  1  1  1  1  1  1  1  1  1  1  1 -1
  21  -1  1  1  1  1  1  1  1  1  1  1  1  1  1  1  1  1  1  1  1  1  1  1  1  1  1  1  1  1  1  1  1  1  1  1  1  1  1  1 -1
  22  -1  1  1  1  1  1  1  1  1  1  1  1  1  1  1  1  1  1  1  1  1  1  1  1  1  1  1  1  1  1  1  1  1  1  1  1  1  1  1 -1
  23  -1  1  1  1  1  1  1  1  1  1  1  1  1  1  1  1  1  1  1  1  1  1  1  1  1  1  1  1  1  1  1  1  1  1  1  1  1  1  1 -1
  24  -1  1  1  1  1  1  1  1  1  1  1  1  1  1  1  1  1  1  1  1  1  1  1  1  1  1  1  1  1  1  1  1  1  1  1  1  1  1  1 -1
  25  -1  1  1  1  1  1  1  1  1  1  1  1  1  1  1  1  1  1  1  1  1  1  1  1  1  1  1  1  1  1  1  1  1  1  1  1  1  1  1 -1
  26  -1  1  1  1  1  1  1  1  1  1  1  1  1  1  1  1  1  1  1  1  1  1  1  1  1  1  1  1  1  1  1  1  1  1  1  1  1  1  1 -1
  27  -1  1  1  1  1  1  1  1  1  1  1  1  1  1  1  1  1  1  1  1  1  1  1  1  1  1  1  1  1  1  1  1  1  1  1  1  1  1  1 -1
  28  -1  1  1  1  1  1  1  1  1  1  1  1  1  1  1  1  1  1  1  1  1  1  1  1  1  1  1  1  1  1  1  1  1  1  1  1  1  1  1 -1
  29  -1  1  1  1  1  1  1  1  1  1  1  1  1  1  1  1  1  1  1  1  1  1  1  1  1  1  1  1  1  1  1  1  1  1  1  1  1  1  1 -1
  30  -1  1  1  1  1  1  1  1  1  1  1  1  1  1  1  1  1  1  1  1  1  1  1  1  1  1  1  1  1  1  1  1  1  1  1  1  1  1  1 -1
  31  -1  1  1  1  1  1  1  1  1  1  1  1  1  1  1  1  1  1  1  1  1  1  1  1  1  1  1  1  1  1  1  1  1  1  1  1  1  1  1 -1
  32  -1  1  1  1  1  1  1  1  1  1  1  1  1  1  1  1  1  1  1  1  1  1  1  1  1  1  1  1  1  1  1  1  1  1  1  1  1  1  1 -1
  33  -1  1  1  1  1  1  1  1  1  1  1  1  1  1  1  1  1  1  1  1  1  1  1  1  1  1  1  1  1  1  1  1  1  1  1  1  1  1  1 -1
  34  -1  1  1  1  1  1  1  1  1  1  1  1  1  1  1  1  1  1  1  1  1  1  1  1  1  1  1  1  1  1  1  1  1  1  1  1  1  1  1 -1
  35  -1  1  1  1  1  1  1  1  1  1  1  1  1  1  1  1  1  1  1  1  1  1  1  1  1  1  1  1  1  1  1  1  1  1  1  1  1  1  1 -1
  36  -1  1  1  1  1  1  1  1  1  1  1  1  1  1  1  1  1  1  1  1  1  1  1  1  1  1  1  1  1  1  1  1  1  1  1  1  1  1  1 -1
  37  -1  1  1  1  1  1  1  1  1  1  1  1  1  1  1  1  1  1  1  1  1  1  1  1  1  1  1  1  1  1  1  1  1  1  1  1  1  1  1 -1
  38  -1  1  1  1  1  1  1  1  1  1  1  1  1  1  1  1  1  1  1  1  1  1  1  1  1  1  1  1  1  1  1  1  1  1  1  1  1  1  1 -1
  39  -1  1  1  1  1  1  1  1  1  1  1  1  1  1  1  1  1  1  1  1  1  1  1  1  1  1  1  1  1  1  1  1  1  1  1  1  1  1  1 -1
  40  -1  1  1  1  1  1  1  1  1  1  1  1  1  1  1  1  1  1  1  1  1  1  1  1  1  1  1  1  1  1  1  1  1  1  1  1  1  1  1 -1
  41  -1  1  1  1  1  1  1  1  1  1  1  1  1  1  1  1  1  1  1  1  1  1  1  1  1  1  1  1  1  1  1  1  1  1  1  1  1  1  1 -1
  42  -1  1  1  1  1  1  1  1  1  1  1  1  1  1  1  1  1  1  1  1  1  1  1  1  1  1  1  1  1  1  1  1  1  1  1  1  1  1  1 -1
  43  -1  1  1  1  1  1  1  1  1  1  1  1  1  1  1  1  1  1  1  1  1  1  1  1  1  1  1  1  1  1  1  1  1  1  1  1  1  1  1 -1
  44  -1  1  1  1  1  1  1  1  1  1  1  1  1  1  1  1  1  1  1  1  1  1  1  1  1  1  1  1  1  1  1  1  1  1  1  1  1  1  1 -1
  45  -1  1  1  1  1  1  1  1  1  1  1  1  1  1  1  1  1  1  1  1  1  1  1  1  1  1  1  1  1  1  1  1  1  1  1  1  1  1  1 -1
  46  -1  1  1  1  1  1  1  1  1  1  1  1  1  1  1  1  1  1  1  1  1  1  1  1  1  1  1  1  1  1  1  1  1  1  1  1  1  1  1 -1
  47  -1  1  1  1  1  1  1  1  1  1  1  1  1  1  1  1  1  1  1  1  1  1  1  1  1  1  1  1  1  1  1  1  1  1  1  1  1  1  1 -1
  48  -1  1  1  1  1  1  1  1  1  1  1  1  1  1  1  1  1  1  1  1  1  1  1  1  1  1  1  1  1  1  1  1  1  1  1  1  1  1  1 -1
  49  -1  1  1  1  1  1  1  1  1  1  1  1  1  1  1  1  1  1  1  1  1  1  1  1  1  1  1  1  1  1  1  1  1  1  1  1  1  1  1 -1
  50  -1  1  1  1  1  1  1  1  1  1  1  1  1  1  1  1  1  1  1  1  1  1  1  1  1  1  1  1  1  1  1  1  1  1  1  1  1  1  1 -1
  51  -1  1  1  1  1  1  1  1  1  1  1  1  1  1  1  1  1  1  1  1  1  1  1  1  1  1  1  1  1  1  1  1  1  1  1  1  1  1  1 -1
  52  -1  1  1  1  1  1  1  1  1  1  1  1  1  1  1  1  1  1  1  1  1  1  1  1  1  1  1  1  1  1  1  1  1  1  1  1  1  1  1 -1
  53  -1  1  1  1  1  1  1  1  1  1  1  1  1  1  1  1  1  1  1  1  1  1  1  1  1  1  1  1  1  1  1  1  1  1  1  1  1  1  1 -1
  54  -1  1  1  1  1  1  1  1  1  1  1  1  1  1  1  1  1  1  1  1  1  1  1  1  1  1  1  1  1  1  1  1  1  1  1  1  1  1  1 -1
  55  -1  1  1  1  1  1  1  1  1  1  1  1  1  1  1  1  1  1  1  1  1  1  1  1  1  1  1  1  1  1  1  1  1  1  1  1  1  1  1 -1
  56  -1  1  1  1  1  1  1  1  1  1  1  1  1  1  1  1  1  1  1  1  1  1  1  1  1  1  1  1  1  1  1  1  1  1  1  1  1  1  1 -1
  57  -1  1  1  1  1  1  1  1  1  1  1  1  1  1  1  1  1  1  1  1  1  1  1  1  1  1  1  1  1  1  1  1  1  1  1  1  1  1  1 -1
  58  -1  1  1  1  1  1  1  1  1  1  1  1  1  1  1  1  1  1  1  1  1  1  1  1  1  1  1  1  1  1  1  1  1  1  1  1  1  1  1 -1
  59  -1  1  1  1  1  1  1  1  1  1  1  1  1  1  1  1  1  1  1  1  1  1  1  1  1  1  1  1  1  1  1  1  1  1  1  1  1  1  1 -1
  60  -1  1  1  1  1  1  1  1  1  1  1  1  1  1  1  1  1  1  1  1  1  1  1  1  1  1  1  1  1  1  1  1  1  1  1  1  1  1  1 -1
  61  -1 -1 -1 -1 -1 -1 -1 -1 -1 -1 -1 -1 -1 -1 -1 -1 -1 -1 -1 -1 -1 -1 -1 -1 -1 -1 -1 -1 -1 -1 -1 -1 -1 -1 -1 -1 -1 -1 -1 -1



                     BOUNDARY ARRAY FOR LAYER   3
 READING ON UNIT   1 WITH FORMAT: (40i2)              

       1  2  3  4  5  6  7  8  9 10 11 12 13 14 15 16 17 18 19 20 21 22 23 24 25 26 27 28 29 30 31 32 33 34 35 36 37 38 39 40
 ............................................................................................................................
   1  -1 -1 -1 -1 -1 -1 -1 -1 -1 -1 -1 -1 -1 -1 -1 -1 -1 -1 -1 -1 -1 -1 -1 -1 -1 -1 -1 -1 -1 -1 -1 -1 -1 -1 -1 -1 -1 -1 -1 -1
   2  -1  1  1  1  1  1  1  1  1  1  1  1  1  1  1  1  1  1  1  1  1  1  1  1  1  1  1  1  1  1  1  1  1  1  1  1  1  1  1 -1
   3  -1  1  1  1  1  1  1  1  1  1  1  1  1  1  1  1  1  1  1  1  1  1  1  1  1  1  1  1  1  1  1  1  1  1  1  1  1  1  1 -1
   4  -1  1  1  1  1  1  1  1  1  1  1  1  1  1  1  1  1  1  1  1  1  1  1  1  1  1  1  1  1  1  1  1  1  1  1  1  1  1  1 -1
   5  -1  1  1  1  1  1  1  1  1  1  1  1  1  1  1  1  1  1  1  1  1  1  1  1  1  1  1  1  1  1  1  1  1  1  1  1  1  1  1 -1
   6  -1  1  1  1  1  1  1  1  1  1  1  1  1  1  1  1  1  1  1  1  1  1  1  1  1  1  1  1  1  1  1  1  1  1  1  1  1  1  1 -1
   7  -1  1  1  1  1  1  1  1  1  1  1  1  1  1  1  1  1  1  1  1  1  1  1  1  1  1  1  1  1  1  1  1  1  1  1  1  1  1  1 -1
   8  -1  1  1  1  1  1  1  1  1  1  1  1  1  1  1  1  1  1  1  1  1  1  1  1  1  1  1  1  1  1  1  1  1  1  1  1  1  1  1 -1
   9  -1  1  1  1  1  1  1  1  1  1  1  1  1  1  1  1  1  1  1  1  1  1  1  1  1  1  1  1  1  1  1  1  1  1  1  1  1  1  1 -1
  10  -1  1  1  1  1  1  1  1  1  1  1  1  1  1  1  1  1  1  1  1  1  1  1  1  1  1  1  1  1  1  1  1  1  1  1  1  1  1  1 -1
  11  -1  1  1  1  1  1  1  1  1  1  1  1  1  1  1  1  1  1  1  1  1  1  1  1  1  1  1  1  1  1  1  1  1  1  1  1  1  1  1 -1
  12  -1  1  1  1  1  1  1  1  1  1  1  1  1  1  1  1  1  1  1  1  1  1  1  1  1  1  1  1  1  1  1  1  1  1  1  1  1  1  1 -1
  13  -1  1  1  1  1  1  1  1  1  1  1  1  1  1  1  1  1  1  1  1  1  1  1  1  1  1  1  1  1  1  1  1  1  1  1  1  1  1  1 -1
  14  -1  1  1  1  1  1  1  1  1  1  1  1  1  1  1  1  1  1  1  1  1  1  1  1  1  1  1  1  1  1  1  1  1  1  1  1  1  1  1 -1
  15  -1  1  1  1  1  1  1  1  1  1  1  1  1  1  1  1  1  1  1  1  1  1  1  1  1  1  1  1  1  1  1  1  1  1  1  1  1  1  1 -1
  16  -1  1  1  1  1  1  1  1  1  1  1  1  1  1  1  1  1  1  1  1  1  1  1  1  1  1  1  1  1  1  1  1  1  1  1  1  1  1  1 -1
  17  -1  1  1  1  1  1  1  1  1  1  1  1  1  1  1  1  1  1  1  1  1  1  1  1  1  1  1  1  1  1  1  1  1  1  1  1  1  1  1 -1
  18  -1  1  1  1  1  1  1  1  1  1  1  1  1  1  1  1  1  1  1  1  1  1  1  1  1  1  1  1  1  1  1  1  1  1  1  1  1  1  1 -1
  19  -1  1  1  1  1  1  1  1  1  1  1  1  1  1  1  1  1  1  1  1  1  1  1  1  1  1  1  1  1  1  1  1  1  1  1  1  1  1  1 -1
  20  -1  1  1  1  1  1  1  1  1  1  1  1  1  1  1  1  1  1  1  1  1  1  1  1  1  1  1  1  1  1  1  1  1  1  1  1  1  1  1 -1
  21  -1  1  1  1  1  1  1  1  1  1  1  1  1  1  1  1  1  1  1  1  1  1  1  1  1  1  1  1  1  1  1  1  1  1  1  1  1  1  1 -1
  22  -1  1  1  1  1  1  1  1  1  1  1  1  1  1  1  1  1  1  1  1  1  1  1  1  1  1  1  1  1  1  1  1  1  1  1  1  1  1  1 -1
  23  -1  1  1  1  1  1  1  1  1  1  1  1  1  1  1  1  1  1  1  1  1  1  1  1  1  1  1  1  1  1  1  1  1  1  1  1  1  1  1 -1
  24  -1  1  1  1  1  1  1  1  1  1  1  1  1  1  1  1  1  1  1  1  1  1  1  1  1  1  1  1  1  1  1  1  1  1  1  1  1  1  1 -1
  25  -1  1  1  1  1  1  1  1  1  1  1  1  1  1  1  1  1  1  1  1  1  1  1  1  1  1  1  1  1  1  1  1  1  1  1  1  1  1  1 -1
  26  -1  1  1  1  1  1  1  1  1  1  1  1  1  1  1  1  1  1  1  1  1  1  1  1  1  1  1  1  1  1  1  1  1  1  1  1  1  1  1 -1
  27  -1  1  1  1  1  1  1  1  1  1  1  1  1  1  1  1  1  1  1  1  1  1  1  1  1  1  1  1  1  1  1  1  1  1  1  1  1  1  1 -1
  28  -1  1  1  1  1  1  1  1  1  1  1  1  1  1  1  1  1  1  1  1  1  1  1  1  1  1  1  1  1  1  1  1  1  1  1  1  1  1  1 -1
  29  -1  1  1  1  1  1  1  1  1  1  1  1  1  1  1  1  1  1  1  1  1  1  1  1  1  1  1  1  1  1  1  1  1  1  1  1  1  1  1 -1
  30  -1  1  1  1  1  1  1  1  1  1  1  1  1  1  1  1  1  1  1  1  1  1  1  1  1  1  1  1  1  1  1  1  1  1  1  1  1  1  1 -1
  31  -1  1  1  1  1  1  1  1  1  1  1  1  1  1  1  1  1  1  1  1  1  1  1  1  1  1  1  1  1  1  1  1  1  1  1  1  1  1  1 -1
  32  -1  1  1  1  1  1  1  1  1  1  1  1  1  1  1  1  1  1  1  1  1  1  1  1  1  1  1  1  1  1  1  1  1  1  1  1  1  1  1 -1
  33  -1  1  1  1  1  1  1  1  1  1  1  1  1  1  1  1  1  1  1  1  1  1  1  1  1  1  1  1  1  1  1  1  1  1  1  1  1  1  1 -1
  34  -1  1  1  1  1  1  1  1  1  1  1  1  1  1  1  1  1  1  1  1  1  1  1  1  1  1  1  1  1  1  1  1  1  1  1  1  1  1  1 -1
  35  -1  1  1  1  1  1  1  1  1  1  1  1  1  1  1  1  1  1  1  1  1  1  1  1  1  1  1  1  1  1  1  1  1  1  1  1  1  1  1 -1
  36  -1  1  1  1  1  1  1  1  1  1  1  1  1  1  1  1  1  1  1  1  1  1  1  1  1  1  1  1  1  1  1  1  1  1  1  1  1  1  1 -1
  37  -1  1  1  1  1  1  1  1  1  1  1  1  1  1  1  1  1  1  1  1  1  1  1  1  1  1  1  1  1  1  1  1  1  1  1  1  1  1  1 -1
  38  -1  1  1  1  1  1  1  1  1  1  1  1  1  1  1  1  1  1  1  1  1  1  1  1  1  1  1  1  1  1  1  1  1  1  1  1  1  1  1 -1
  39  -1  1  1  1  1  1  1  1  1  1  1  1  1  1  1  1  1  1  1  1  1  1  1  1  1  1  1  1  1  1  1  1  1  1  1  1  1  1  1 -1
  40  -1  1  1  1  1  1  1  1  1  1  1  1  1  1  1  1  1  1  1  1  1  1  1  1  1  1  1  1  1  1  1  1  1  1  1  1  1  1  1 -1
  41  -1  1  1  1  1  1  1  1  1  1  1  1  1  1  1  1  1  1  1  1  1  1  1  1  1  1  1  1  1  1  1  1  1  1  1  1  1  1  1 -1
  42  -1  1  1  1  1  1  1  1  1  1  1  1  1  1  1  1  1  1  1  1  1  1  1  1  1  1  1  1  1  1  1  1  1  1  1  1  1  1  1 -1
  43  -1  1  1  1  1  1  1  1  1  1  1  1  1  1  1  1  1  1  1  1  1  1  1  1  1  1  1  1  1  1  1  1  1  1  1  1  1  1  1 -1
  44  -1  1  1  1  1  1  1  1  1  1  1  1  1  1  1  1  1  1  1  1  1  1  1  1  1  1  1  1  1  1  1  1  1  1  1  1  1  1  1 -1
  45  -1  1  1  1  1  1  1  1  1  1  1  1  1  1  1  1  1  1  1  1  1  1  1  1  1  1  1  1  1  1  1  1  1  1  1  1  1  1  1 -1
  46  -1  1  1  1  1  1  1  1  1  1  1  1  1  1  1  1  1  1  1  1  1  1  1  1  1  1  1  1  1  1  1  1  1  1  1  1  1  1  1 -1
  47  -1  1  1  1  1  1  1  1  1  1  1  1  1  1  1  1  1  1  1  1  1  1  1  1  1  1  1  1  1  1  1  1  1  1  1  1  1  1  1 -1
  48  -1  1  1  1  1  1  1  1  1  1  1  1  1  1  1  1  1  1  1  1  1  1  1  1  1  1  1  1  1  1  1  1  1  1  1  1  1  1  1 -1
  49  -1  1  1  1  1  1  1  1  1  1  1  1  1  1  1  1  1  1  1  1  1  1  1  1  1  1  1  1  1  1  1  1  1  1  1  1  1  1  1 -1
  50  -1  1  1  1  1  1  1  1  1  1  1  1  1  1  1  1  1  1  1  1  1  1  1  1  1  1  1  1  1  1  1  1  1  1  1  1  1  1  1 -1
  51  -1  1  1  1  1  1  1  1  1  1  1  1  1  1  1  1  1  1  1  1  1  1  1  1  1  1  1  1  1  1  1  1  1  1  1  1  1  1  1 -1
  52  -1  1  1  1  1  1  1  1  1  1  1  1  1  1  1  1  1  1  1  1  1  1  1  1  1  1  1  1  1  1  1  1  1  1  1  1  1  1  1 -1
  53  -1  1  1  1  1  1  1  1  1  1  1  1  1  1  1  1  1  1  1  1  1  1  1  1  1  1  1  1  1  1  1  1  1  1  1  1  1  1  1 -1
  54  -1  1  1  1  1  1  1  1  1  1  1  1  1  1  1  1  1  1  1  1  1  1  1  1  1  1  1  1  1  1  1  1  1  1  1  1  1  1  1 -1
  55  -1  1  1  1  1  1  1  1  1  1  1  1  1  1  1  1  1  1  1  1  1  1  1  1  1  1  1  1  1  1  1  1  1  1  1  1  1  1  1 -1
  56  -1  1  1  1  1  1  1  1  1  1  1  1  1  1  1  1  1  1  1  1  1  1  1  1  1  1  1  1  1  1  1  1  1  1  1  1  1  1  1 -1
  57  -1  1  1  1  1  1  1  1  1  1  1  1  1  1  1  1  1  1  1  1  1  1  1  1  1  1  1  1  1  1  1  1  1  1  1  1  1  1  1 -1
  58  -1  1  1  1  1  1  1  1  1  1  1  1  1  1  1  1  1  1  1  1  1  1  1  1  1  1  1  1  1  1  1  1  1  1  1  1  1  1  1 -1
  59  -1  1  1  1  1  1  1  1  1  1  1  1  1  1  1  1  1  1  1  1  1  1  1  1  1  1  1  1  1  1  1  1  1  1  1  1  1  1  1 -1
  60  -1  1  1  1  1  1  1  1  1  1  1  1  1  1  1  1  1  1  1  1  1  1  1  1  1  1  1  1  1  1  1  1  1  1  1  1  1  1  1 -1
  61  -1 -1 -1 -1 -1 -1 -1 -1 -1 -1 -1 -1 -1 -1 -1 -1 -1 -1 -1 -1 -1 -1 -1 -1 -1 -1 -1 -1 -1 -1 -1 -1 -1 -1 -1 -1 -1 -1 -1 -1



                     BOUNDARY ARRAY FOR LAYER   4
 READING ON UNIT   1 WITH FORMAT: (40i2)              

       1  2  3  4  5  6  7  8  9 10 11 12 13 14 15 16 17 18 19 20 21 22 23 24 25 26 27 28 29 30 31 32 33 34 35 36 37 38 39 40
 ............................................................................................................................
   1  -1 -1 -1 -1 -1 -1 -1 -1 -1 -1 -1 -1 -1 -1 -1 -1 -1 -1 -1 -1 -1 -1 -1 -1 -1 -1 -1 -1 -1 -1 -1 -1 -1 -1 -1 -1 -1 -1 -1 -1
   2  -1  1  1  1  1  1  1  1  1  1  1  1  1  1  1  1  1  1  1  1  1  1  1  1  1  1  1  1  1  1  1  1  1  1  1  1  1  1  1 -1
   3  -1  1  1  1  1  1  1  1  1  1  1  1  1  1  1  1  1  1  1  1  1  1  1  1  1  1  1  1  1  1  1  1  1  1  1  1  1  1  1 -1
   4  -1  1  1  1  1  1  1  1  1  1  1  1  1  1  1  1  1  1  1  1  1  1  1  1  1  1  1  1  1  1  1  1  1  1  1  1  1  1  1 -1
   5  -1  1  1  1  1  1  1  1  1  1  1  1  1  1  1  1  1  1  1  1  1  1  1  1  1  1  1  1  1  1  1  1  1  1  1  1  1  1  1 -1
   6  -1  1  1  1  1  1  1  1  1  1  1  1  1  1  1  1  1  1  1  1  1  1  1  1  1  1  1  1  1  1  1  1  1  1  1  1  1  1  1 -1
   7  -1  1  1  1  1  1  1  1  1  1  1  1  1  1  1  1  1  1  1  1  1  1  1  1  1  1  1  1  1  1  1  1  1  1  1  1  1  1  1 -1
   8  -1  1  1  1  1  1  1  1  1  1  1  1  1  1  1  1  1  1  1  1  1  1  1  1  1  1  1  1  1  1  1  1  1  1  1  1  1  1  1 -1
   9  -1  1  1  1  1  1  1  1  1  1  1  1  1  1  1  1  1  1  1  1  1  1  1  1  1  1  1  1  1  1  1  1  1  1  1  1  1  1  1 -1
  10  -1  1  1  1  1  1  1  1  1  1  1  1  1  1  1  1  1  1  1  1  1  1  1  1  1  1  1  1  1  1  1  1  1  1  1  1  1  1  1 -1
  11  -1  1  1  1  1  1  1  1  1  1  1  1  1  1  1  1  1  1  1  1  1  1  1  1  1  1  1  1  1  1  1  1  1  1  1  1  1  1  1 -1
  12  -1  1  1  1  1  1  1  1  1  1  1  1  1  1  1  1  1  1  1  1  1  1  1  1  1  1  1  1  1  1  1  1  1  1  1  1  1  1  1 -1
  13  -1  1  1  1  1  1  1  1  1  1  1  1  1  1  1  1  1  1  1  1  1  1  1  1  1  1  1  1  1  1  1  1  1  1  1  1  1  1  1 -1
  14  -1  1  1  1  1  1  1  1  1  1  1  1  1  1  1  1  1  1  1  1  1  1  1  1  1  1  1  1  1  1  1  1  1  1  1  1  1  1  1 -1
  15  -1  1  1  1  1  1  1  1  1  1  1  1  1  1  1  1  1  1  1  1  1  1  1  1  1  1  1  1  1  1  1  1  1  1  1  1  1  1  1 -1
  16  -1  1  1  1  1  1  1  1  1  1  1  1  1  1  1  1  1  1  1  1  1  1  1  1  1  1  1  1  1  1  1  1  1  1  1  1  1  1  1 -1
  17  -1  1  1  1  1  1  1  1  1  1  1  1  1  1  1  1  1  1  1  1  1  1  1  1  1  1  1  1  1  1  1  1  1  1  1  1  1  1  1 -1
  18  -1  1  1  1  1  1  1  1  1  1  1  1  1  1  1  1  1  1  1  1  1  1  1  1  1  1  1  1  1  1  1  1  1  1  1  1  1  1  1 -1
  19  -1  1  1  1  1  1  1  1  1  1  1  1  1  1  1  1  1  1  1  1  1  1  1  1  1  1  1  1  1  1  1  1  1  1  1  1  1  1  1 -1
  20  -1  1  1  1  1  1  1  1  1  1  1  1  1  1  1  1  1  1  1  1  1  1  1  1  1  1  1  1  1  1  1  1  1  1  1  1  1  1  1 -1
  21  -1  1  1  1  1  1  1  1  1  1  1  1  1  1  1  1  1  1  1  1  1  1  1  1  1  1  1  1  1  1  1  1  1  1  1  1  1  1  1 -1
  22  -1  1  1  1  1  1  1  1  1  1  1  1  1  1  1  1  1  1  1  1  1  1  1  1  1  1  1  1  1  1  1  1  1  1  1  1  1  1  1 -1
  23  -1  1  1  1  1  1  1  1  1  1  1  1  1  1  1  1  1  1  1  1  1  1  1  1  1  1  1  1  1  1  1  1  1  1  1  1  1  1  1 -1
  24  -1  1  1  1  1  1  1  1  1  1  1  1  1  1  1  1  1  1  1  1  1  1  1  1  1  1  1  1  1  1  1  1  1  1  1  1  1  1  1 -1
  25  -1  1  1  1  1  1  1  1  1  1  1  1  1  1  1  1  1  1  1  1  1  1  1  1  1  1  1  1  1  1  1  1  1  1  1  1  1  1  1 -1
  26  -1  1  1  1  1  1  1  1  1  1  1  1  1  1  1  1  1  1  1  1  1  1  1  1  1  1  1  1  1  1  1  1  1  1  1  1  1  1  1 -1
  27  -1  1  1  1  1  1  1  1  1  1  1  1  1  1  1  1  1  1  1  1  1  1  1  1  1  1  1  1  1  1  1  1  1  1  1  1  1  1  1 -1
  28  -1  1  1  1  1  1  1  1  1  1  1  1  1  1  1  1  1  1  1  1  1  1  1  1  1  1  1  1  1  1  1  1  1  1  1  1  1  1  1 -1
  29  -1  1  1  1  1  1  1  1  1  1  1  1  1  1  1  1  1  1  1  1  1  1  1  1  1  1  1  1  1  1  1  1  1  1  1  1  1  1  1 -1
  30  -1  1  1  1  1  1  1  1  1  1  1  1  1  1  1  1  1  1  1  1  1  1  1  1  1  1  1  1  1  1  1  1  1  1  1  1  1  1  1 -1
  31  -1  1  1  1  1  1  1  1  1  1  1  1  1  1  1  1  1  1  1  1  1  1  1  1  1  1  1  1  1  1  1  1  1  1  1  1  1  1  1 -1
  32  -1  1  1  1  1  1  1  1  1  1  1  1  1  1  1  1  1  1  1  1  1  1  1  1  1  1  1  1  1  1  1  1  1  1  1  1  1  1  1 -1
  33  -1  1  1  1  1  1  1  1  1  1  1  1  1  1  1  1  1  1  1  1  1  1  1  1  1  1  1  1  1  1  1  1  1  1  1  1  1  1  1 -1
  34  -1  1  1  1  1  1  1  1  1  1  1  1  1  1  1  1  1  1  1  1  1  1  1  1  1  1  1  1  1  1  1  1  1  1  1  1  1  1  1 -1
  35  -1  1  1  1  1  1  1  1  1  1  1  1  1  1  1  1  1  1  1  1  1  1  1  1  1  1  1  1  1  1  1  1  1  1  1  1  1  1  1 -1
  36  -1  1  1  1  1  1  1  1  1  1  1  1  1  1  1  1  1  1  1  1  1  1  1  1  1  1  1  1  1  1  1  1  1  1  1  1  1  1  1 -1
  37  -1  1  1  1  1  1  1  1  1  1  1  1  1  1  1  1  1  1  1  1  1  1  1  1  1  1  1  1  1  1  1  1  1  1  1  1  1  1  1 -1
  38  -1  1  1  1  1  1  1  1  1  1  1  1  1  1  1  1  1  1  1  1  1  1  1  1  1  1  1  1  1  1  1  1  1  1  1  1  1  1  1 -1
  39  -1  1  1  1  1  1  1  1  1  1  1  1  1  1  1  1  1  1  1  1  1  1  1  1  1  1  1  1  1  1  1  1  1  1  1  1  1  1  1 -1
  40  -1  1  1  1  1  1  1  1  1  1  1  1  1  1  1  1  1  1  1  1  1  1  1  1  1  1  1  1  1  1  1  1  1  1  1  1  1  1  1 -1
  41  -1  1  1  1  1  1  1  1  1  1  1  1  1  1  1  1  1  1  1  1  1  1  1  1  1  1  1  1  1  1  1  1  1  1  1  1  1  1  1 -1
  42  -1  1  1  1  1  1  1  1  1  1  1  1  1  1  1  1  1  1  1  1  1  1  1  1  1  1  1  1  1  1  1  1  1  1  1  1  1  1  1 -1
  43  -1  1  1  1  1  1  1  1  1  1  1  1  1  1  1  1  1  1  1  1  1  1  1  1  1  1  1  1  1  1  1  1  1  1  1  1  1  1  1 -1
  44  -1  1  1  1  1  1  1  1  1  1  1  1  1  1  1  1  1  1  1  1  1  1  1  1  1  1  1  1  1  1  1  1  1  1  1  1  1  1  1 -1
  45  -1  1  1  1  1  1  1  1  1  1  1  1  1  1  1  1  1  1  1  1  1  1  1  1  1  1  1  1  1  1  1  1  1  1  1  1  1  1  1 -1
  46  -1  1  1  1  1  1  1  1  1  1  1  1  1  1  1  1  1  1  1  1  1  1  1  1  1  1  1  1  1  1  1  1  1  1  1  1  1  1  1 -1
  47  -1  1  1  1  1  1  1  1  1  1  1  1  1  1  1  1  1  1  1  1  1  1  1  1  1  1  1  1  1  1  1  1  1  1  1  1  1  1  1 -1
  48  -1  1  1  1  1  1  1  1  1  1  1  1  1  1  1  1  1  1  1  1  1  1  1  1  1  1  1  1  1  1  1  1  1  1  1  1  1  1  1 -1
  49  -1  1  1  1  1  1  1  1  1  1  1  1  1  1  1  1  1  1  1  1  1  1  1  1  1  1  1  1  1  1  1  1  1  1  1  1  1  1  1 -1
  50  -1  1  1  1  1  1  1  1  1  1  1  1  1  1  1  1  1  1  1  1  1  1  1  1  1  1  1  1  1  1  1  1  1  1  1  1  1  1  1 -1
  51  -1  1  1  1  1  1  1  1  1  1  1  1  1  1  1  1  1  1  1  1  1  1  1  1  1  1  1  1  1  1  1  1  1  1  1  1  1  1  1 -1
  52  -1  1  1  1  1  1  1  1  1  1  1  1  1  1  1  1  1  1  1  1  1  1  1  1  1  1  1  1  1  1  1  1  1  1  1  1  1  1  1 -1
  53  -1  1  1  1  1  1  1  1  1  1  1  1  1  1  1  1  1  1  1  1  1  1  1  1  1  1  1  1  1  1  1  1  1  1  1  1  1  1  1 -1
  54  -1  1  1  1  1  1  1  1  1  1  1  1  1  1  1  1  1  1  1  1  1  1  1  1  1  1  1  1  1  1  1  1  1  1  1  1  1  1  1 -1
  55  -1  1  1  1  1  1  1  1  1  1  1  1  1  1  1  1  1  1  1  1  1  1  1  1  1  1  1  1  1  1  1  1  1  1  1  1  1  1  1 -1
  56  -1  1  1  1  1  1  1  1  1  1  1  1  1  1  1  1  1  1  1  1  1  1  1  1  1  1  1  1  1  1  1  1  1  1  1  1  1  1  1 -1
  57  -1  1  1  1  1  1  1  1  1  1  1  1  1  1  1  1  1  1  1  1  1  1  1  1  1  1  1  1  1  1  1  1  1  1  1  1  1  1  1 -1
  58  -1  1  1  1  1  1  1  1  1  1  1  1  1  1  1  1  1  1  1  1  1  1  1  1  1  1  1  1  1  1  1  1  1  1  1  1  1  1  1 -1
  59  -1  1  1  1  1  1  1  1  1  1  1  1  1  1  1  1  1  1  1  1  1  1  1  1  1  1  1  1  1  1  1  1  1  1  1  1  1  1  1 -1
  60  -1  1  1  1  1  1  1  1  1  1  1  1  1  1  1  1  1  1  1  1  1  1  1  1  1  1  1  1  1  1  1  1  1  1  1  1  1  1  1 -1
  61  -1 -1 -1 -1 -1 -1 -1 -1 -1 -1 -1 -1 -1 -1 -1 -1 -1 -1 -1 -1 -1 -1 -1 -1 -1 -1 -1 -1 -1 -1 -1 -1 -1 -1 -1 -1 -1 -1 -1 -1

 AQUIFER HEAD WILL BE SET TO -999.00     AT ALL NO-FLOW NODES (IBOUND=0).



                       INITIAL HEAD FOR LAYER   1
 READING ON UNIT   1 WITH FORMAT: (3X,15F8.3)         

           1       2       3       4       5       6       7       8       9      10      11      12      13      14      15
          16      17      18      19      20      21      22      23      24      25      26      27      28      29      30
          31      32      33      34      35      36      37      38      39      40
 ...........................................................................................................................
   1    787.4   788.2   788.8   789.0   789.2   789.2   789.3   789.3   789.3   789.3   789.4   789.4   789.4   789.4   789.5
        789.5   789.5   789.5   789.5   789.6   789.6   789.6   789.6   789.7   789.7   789.7   789.7   789.8   789.8   789.8
        789.8   789.8   789.9   789.9   789.9   790.0   790.1   790.4   790.9   791.8
   2    785.3   786.1   786.7   787.0   787.1   787.2   787.2   787.2   787.2   787.3   787.3   787.3   787.3   787.4   787.4
        787.4   787.4   787.4   787.5   787.5   787.5   787.5   787.6   787.6   787.6   787.6   787.7   787.7   787.7   787.7
        787.7   787.8   787.8   787.8   787.8   787.9   788.0   788.3   788.9   789.7
   3    783.2   784.1   784.6   784.9   785.0   785.1   785.1   785.1   785.2   785.2   785.2   785.2   785.3   785.3   785.3
        785.3   785.3   785.4   785.4   785.4   785.4   785.5   785.5   785.5   785.5   785.5   785.6   785.6   785.6   785.6
        785.7   785.7   785.7   785.7   785.8   785.8   786.0   786.2   786.8   787.6
   4    781.4   782.2   782.7   783.0   783.1   783.2   783.2   783.3   783.3   783.3   783.3   783.4   783.4   783.4   783.4
        783.4   783.5   783.5   783.5   783.5   783.6   783.6   783.6   783.6   783.7   783.7   783.7   783.7   783.7   783.8
        783.8   783.8   783.8   783.9   783.9   784.0   784.1   784.4   784.9   785.7
   5    780.1   780.9   781.5   781.8   781.9   782.0   782.0   782.0   782.0   782.1   782.1   782.1   782.1   782.2   782.2
        782.2   782.2   782.2   782.3   782.3   782.3   782.3   782.4   782.4   782.4   782.4   782.5   782.5   782.5   782.5
        782.5   782.6   782.6   782.6   782.6   782.7   782.8   783.1   783.7   784.5
   6    779.5   780.3   780.9   781.1   781.3   781.3   781.4   781.4   781.4   781.4   781.5   781.5   781.5   781.5   781.6
        781.6   781.6   781.6   781.6   781.7   781.7   781.7   781.7   781.8   781.8   781.8   781.8   781.8   781.9   781.9
        781.9   781.9   782.0   782.0   782.0   782.1   782.2   782.5   783.0   783.9
   7    779.2   780.0   780.5   780.8   781.0   781.0   781.1   781.1   781.1   781.1   781.2   781.2   781.2   781.2   781.2
        781.3   781.3   781.3   781.3   781.4   781.4   781.4   781.4   781.4   781.5   781.5   781.5   781.5   781.6   781.6
        781.6   781.6   781.7   781.7   781.7   781.8   781.9   782.2   782.7   783.6
   8    779.0   779.8   780.4   780.7   780.8   780.9   780.9   780.9   780.9   781.0   781.0   781.0   781.0   781.1   781.1
        781.1   781.1   781.2   781.2   781.2   781.2   781.2   781.3   781.3   781.3   781.3   781.4   781.4   781.4   781.4
        781.5   781.5   781.5   781.5   781.6   781.6   781.8   782.0   782.6   783.4
   9    778.9   779.8   780.3   780.6   780.7   780.8   780.8   780.8   780.9   780.9   780.9   780.9   781.0   781.0   781.0
        781.0   781.1   781.1   781.1   781.1   781.1   781.2   781.2   781.2   781.2   781.3   781.3   781.3   781.3   781.3
        781.4   781.4   781.4   781.4   781.5   781.5   781.7   782.0   782.5   783.3
  10    778.9   779.7   780.3   780.5   780.7   780.7   780.8   780.8   780.8   780.8   780.9   780.9   780.9   780.9   781.0
        781.0   781.0   781.0   781.0   781.1   781.1   781.1   781.1   781.2   781.2   781.2   781.2   781.3   781.3   781.3
        781.3   781.3   781.4   781.4   781.4   781.5   781.6   781.9   782.4   783.3
  11    778.8   779.7   780.2   780.5   780.6   780.7   780.7   780.7   780.8   780.8   780.8   780.8   780.9   780.9   780.9
        780.9   780.9   781.0   781.0   781.0   781.0   781.1   781.1   781.1   781.1   781.2   781.2   781.2   781.2   781.2
        781.3   781.3   781.3   781.3   781.4   781.4   781.6   781.8   782.4   783.2
  12    778.8   779.6   780.2   780.4   780.6   780.6   780.7   780.7   780.7   780.7   780.8   780.8   780.8   780.8   780.9
        780.9   780.9   780.9   780.9   781.0   781.0   781.0   781.0   781.1   781.1   781.1   781.1   781.1   781.2   781.2
        781.2   781.2   781.3   781.3   781.3   781.4   781.5   781.8   782.3   783.2
  13    778.7   779.6   780.1   780.4   780.5   780.6   780.6   780.6   780.7   780.7   780.7   780.7   780.8   780.8   780.8
        780.8   780.8   780.9   780.9   780.9   780.9   781.0   781.0   781.0   781.0   781.0   781.1   781.1   781.1   781.1
        781.2   781.2   781.2   781.2   781.3   781.3   781.5   781.7   782.3   783.1
  14    778.7   779.5   780.1   780.3   780.5   780.5   780.6   780.6   780.6   780.6   780.7   780.7   780.7   780.7   780.7
        780.8   780.8   780.8   780.8   780.9   780.9   780.9   780.9   781.0   781.0   781.0   781.0   781.0   781.1   781.1
        781.1   781.1   781.2   781.2   781.2   781.3   781.4   781.7   782.2   783.1
  15    778.6   779.5   780.0   780.3   780.4   780.5   780.5   780.5   780.6   780.6   780.6   780.6   780.7   780.7   780.7
        780.7   780.7   780.8   780.8   780.8   780.8   780.9   780.9   780.9   780.9   780.9   781.0   781.0   781.0   781.0
        781.1   781.1   781.1   781.1   781.2   781.2   781.4   781.6   782.2   783.0
  16    778.6   779.4   780.0   780.2   780.4   780.4   780.5   780.5   780.5   780.5   780.6   780.6   780.6   780.6   780.6
        780.7   780.7   780.7   780.7   780.8   780.8   780.8   780.8   780.8   780.9   780.9   780.9   780.9   781.0   781.0
        781.0   781.0   781.1   781.1   781.1   781.2   781.3   781.6   782.1   783.0
  17    778.5   779.4   779.9   780.2   780.3   780.4   780.4   780.4   780.5   780.5   780.5   780.5   780.5   780.6   780.6
        780.6   780.6   780.7   780.7   780.7   780.7   780.8   780.8   780.8   780.8   780.8   780.9   780.9   780.9   780.9
        781.0   781.0   781.0   781.0   781.1   781.1   781.3   781.5   782.1   782.9
  18    778.5   779.3   779.8   780.1   780.3   780.3   780.4   780.4   780.4   780.4   780.4   780.5   780.5   780.5   780.5
        780.6   780.6   780.6   780.6   780.7   780.7   780.7   780.7   780.7   780.8   780.8   780.8   780.8   780.9   780.9
        780.9   780.9   780.9   781.0   781.0   781.1   781.2   781.5   782.0   782.8
  19    778.4   779.2   779.8   780.1   780.2   780.3   780.3   780.3   780.4   780.4   780.4   780.4   780.4   780.5   780.5
        780.5   780.5   780.6   780.6   780.6   780.6   780.6   780.7   780.7   780.7   780.7   780.8   780.8   780.8   780.8
        780.9   780.9   780.9   780.9   781.0   781.0   781.2   781.4   782.0   782.8
  20    778.4   779.2   779.7   780.0   780.2   780.2   780.3   780.3   780.3   780.3   780.3   780.4   780.4   780.4   780.4
        780.5   780.5   780.5   780.5   780.5   780.6   780.6   780.6   780.6   780.7   780.7   780.7   780.7   780.8   780.8
        780.8   780.8   780.8   780.9   780.9   781.0   781.1   781.4   781.9   782.7
  21    778.3   779.1   779.7   780.0   780.1   780.2   780.2   780.2   780.2   780.3   780.3   780.3   780.3   780.4   780.4
        780.4   780.4   780.5   780.5   780.5   780.5   780.5   780.6   780.6   780.6   780.6   780.7   780.7   780.7   780.7
        780.7   780.8   780.8   780.8   780.8   780.9   781.1   781.3   781.9   782.7
  22    778.3   779.1   779.6   779.9   780.0   780.1   780.1   780.2   780.2   780.2   780.2   780.3   780.3   780.3   780.3
        780.4   780.4   780.4   780.4   780.4   780.5   780.5   780.5   780.5   780.6   780.6   780.6   780.6   780.7   780.7
        780.7   780.7   780.7   780.8   780.8   780.9   781.0   781.3   781.8   782.6
  23    778.2   779.0   779.6   779.9   780.0   780.1   780.1   780.1   780.1   780.2   780.2   780.2   780.2   780.3   780.3
        780.3   780.3   780.3   780.4   780.4   780.4   780.4   780.5   780.5   780.5   780.5   780.6   780.6   780.6   780.6
        780.6   780.7   780.7   780.7   780.7   780.8   781.0   781.2   781.8   782.6
  24    778.2   779.0   779.5   779.8   779.9   780.0   780.0   780.1   780.1   780.1   780.1   780.2   780.2   780.2   780.2
        780.3   780.3   780.3   780.3   780.3   780.4   780.4   780.4   780.4   780.5   780.5   780.5   780.5   780.5   780.6
        780.6   780.6   780.6   780.7   780.7   780.8   780.9   781.2   781.7   782.5
  25    778.1   778.9   779.5   779.8   779.9   780.0   780.0   780.0   780.0   780.1   780.1   780.1   780.1   780.2   780.2
        780.2   780.2   780.2   780.3   780.3   780.3   780.3   780.4   780.4   780.4   780.4   780.4   780.5   780.5   780.5
        780.5   780.6   780.6   780.6   780.6   780.7   780.8   781.1   781.7   782.5
  26    778.1   778.9   779.4   779.7   779.8   779.9   779.9   780.0   780.0   780.0   780.0   780.1   780.1   780.1   780.1
        780.1   780.2   780.2   780.2   780.2   780.3   780.3   780.3   780.3   780.4   780.4   780.4   780.4   780.4   780.5
        780.5   780.5   780.5   780.6   780.6   780.7   780.8   781.1   781.6   782.4
  27    778.0   778.8   779.4   779.7   779.8   779.9   779.9   779.9   779.9   780.0   780.0   780.0   780.0   780.0   780.1
        780.1   780.1   780.1   780.2   780.2   780.2   780.2   780.3   780.3   780.3   780.3   780.3   780.4   780.4   780.4
        780.4   780.5   780.5   780.5   780.5   780.6   780.7   781.0   781.6   782.4
  28    778.0   778.8   779.3   779.6   779.7   779.8   779.8   779.9   779.9   779.9   779.9   780.0   780.0   780.0   780.0
        780.0   780.1   780.1   780.1   780.1   780.2   780.2   780.2   780.2   780.2   780.3   780.3   780.3   780.3   780.4
        780.4   780.4   780.4   780.5   780.5   780.6   780.7   781.0   781.5   782.3
  29    777.9   778.7   779.3   779.5   779.7   779.8   779.8   779.8   779.8   779.9   779.9   779.9   779.9   779.9   780.0
        780.0   780.0   780.0   780.1   780.1   780.1   780.1   780.1   780.2   780.2   780.2   780.2   780.3   780.3   780.3
        780.3   780.4   780.4   780.4   780.4   780.5   780.6   780.9   781.5   782.3
  30    777.9   778.7   779.2   779.5   779.6   779.7   779.7   779.8   779.8   779.8   779.8   779.8   779.9   779.9   779.9
        779.9   780.0   780.0   780.0   780.0   780.1   780.1   780.1   780.1   780.1   780.2   780.2   780.2   780.2   780.3
        780.3   780.3   780.3   780.3   780.4   780.5   780.6   780.9   781.4   782.2
  31    777.8   778.6   779.2   779.4   779.6   779.6   779.7   779.7   779.7   779.8   779.8   779.8   779.8   779.8   779.9
        779.9   779.9   779.9   780.0   780.0   780.0   780.0   780.0   780.1   780.1   780.1   780.1   780.2   780.2   780.2
        780.2   780.3   780.3   780.3   780.3   780.4   780.5   780.8   781.4   782.2
  32    777.8   778.6   779.1   779.4   779.5   779.6   779.6   779.7   779.7   779.7   779.7   779.7   779.8   779.8   779.8
        779.8   779.9   779.9   779.9   779.9   779.9   780.0   780.0   780.0   780.0   780.1   780.1   780.1   780.1   780.2
        780.2   780.2   780.2   780.2   780.3   780.3   780.5   780.8   781.3   782.1
  33    777.7   778.5   779.1   779.3   779.5   779.5   779.6   779.6   779.6   779.6   779.7   779.7   779.7   779.7   779.8
        779.8   779.8   779.8   779.9   779.9   779.9   779.9   779.9   780.0   780.0   780.0   780.0   780.1   780.1   780.1
        780.1   780.1   780.2   780.2   780.2   780.3   780.4   780.7   781.2   782.1
  34    777.6   778.5   779.0   779.3   779.4   779.5   779.5   779.5   779.6   779.6   779.6   779.6   779.7   779.7   779.7
        779.7   779.8   779.8   779.8   779.8   779.8   779.9   779.9   779.9   779.9   780.0   780.0   780.0   780.0   780.0
        780.1   780.1   780.1   780.1   780.2   780.2   780.4   780.7   781.2   782.0
  35    777.6   778.4   779.0   779.2   779.4   779.4   779.5   779.5   779.5   779.5   779.6   779.6   779.6   779.6   779.7
        779.7   779.7   779.7   779.7   779.8   779.8   779.8   779.8   779.9   779.9   779.9   779.9   780.0   780.0   780.0
        780.0   780.0   780.1   780.1   780.1   780.2   780.3   780.6   781.1   782.0
  36    777.5   778.4   778.9   779.2   779.3   779.4   779.4   779.4   779.5   779.5   779.5   779.5   779.6   779.6   779.6
        779.6   779.6   779.7   779.7   779.7   779.7   779.8   779.8   779.8   779.8   779.9   779.9   779.9   779.9   779.9
        780.0   780.0   780.0   780.0   780.1   780.1   780.3   780.5   781.1   781.9
  37    777.5   778.3   778.9   779.1   779.3   779.3   779.4   779.4   779.4   779.4   779.5   779.5   779.5   779.5   779.6
        779.6   779.6   779.6   779.6   779.7   779.7   779.7   779.7   779.8   779.8   779.8   779.8   779.8   779.9   779.9
        779.9   779.9   780.0   780.0   780.0   780.1   780.2   780.5   781.0   781.9
  38    777.4   778.3   778.8   779.1   779.2   779.3   779.3   779.3   779.4   779.4   779.4   779.4   779.5   779.5   779.5
        779.5   779.5   779.6   779.6   779.6   779.6   779.7   779.7   779.7   779.7   779.8   779.8   779.8   779.8   779.8
        779.9   779.9   779.9   779.9   780.0   780.0   780.2   780.4   781.0   781.8
  39    777.4   778.2   778.8   779.0   779.2   779.2   779.3   779.3   779.3   779.3   779.4   779.4   779.4   779.4   779.4
        779.5   779.5   779.5   779.5   779.6   779.6   779.6   779.6   779.7   779.7   779.7   779.7   779.7   779.8   779.8
        779.8   779.8   779.9   779.9   779.9   780.0   780.1   780.4   780.9   781.8
  40    777.3   778.2   778.7   779.0   779.1   779.2   779.2   779.2   779.3   779.3   779.3   779.3   779.3   779.4   779.4
        779.4   779.4   779.5   779.5   779.5   779.5   779.6   779.6   779.6   779.6   779.6   779.7   779.7   779.7   779.7
        779.8   779.8   779.8   779.8   779.9   779.9   780.1   780.3   780.9   781.7
  41    777.3   778.1   778.7   778.9   779.1   779.1   779.2   779.2   779.2   779.2   779.3   779.3   779.3   779.3   779.3
        779.4   779.4   779.4   779.4   779.5   779.5   779.5   779.5   779.5   779.6   779.6   779.6   779.6   779.7   779.7
        779.7   779.7   779.8   779.8   779.8   779.9   780.0   780.3   780.8   781.7
  42    777.2   778.1   778.6   778.9   779.0   779.1   779.1   779.1   779.2   779.2   779.2   779.2   779.2   779.3   779.3
        779.3   779.3   779.4   779.4   779.4   779.4   779.5   779.5   779.5   779.5   779.5   779.6   779.6   779.6   779.6
        779.7   779.7   779.7   779.7   779.8   779.8   780.0   780.2   780.8   781.6
  43    777.2   778.0   778.5   778.8   779.0   779.0   779.1   779.1   779.1   779.1   779.1   779.2   779.2   779.2   779.2
        779.3   779.3   779.3   779.3   779.4   779.4   779.4   779.4   779.4   779.5   779.5   779.5   779.5   779.6   779.6
        779.6   779.6   779.6   779.7   779.7   779.8   779.9   780.2   780.7   781.5
  44    777.1   777.9   778.5   778.8   778.9   779.0   779.0   779.0   779.1   779.1   779.1   779.1   779.1   779.2   779.2
        779.2   779.2   779.3   779.3   779.3   779.3   779.3   779.4   779.4   779.4   779.4   779.5   779.5   779.5   779.5
        779.6   779.6   779.6   779.6   779.7   779.7   779.9   780.1   780.7   781.5
  45    777.1   777.9   778.4   778.7   778.9   778.9   779.0   779.0   779.0   779.0   779.0   779.1   779.1   779.1   779.1
        779.2   779.2   779.2   779.2   779.2   779.3   779.3   779.3   779.3   779.4   779.4   779.4   779.4   779.5   779.5
        779.5   779.5   779.5   779.6   779.6   779.7   779.8   780.1   780.6   781.4
  46    777.0   777.8   778.4   778.7   778.8   778.9   778.9   778.9   778.9   779.0   779.0   779.0   779.0   779.1   779.1
        779.1   779.1   779.2   779.2   779.2   779.2   779.2   779.3   779.3   779.3   779.3   779.4   779.4   779.4   779.4
        779.4   779.5   779.5   779.5   779.5   779.6   779.8   780.0   780.6   781.4
  47    777.0   777.8   778.3   778.6   778.7   778.8   778.8   778.9   778.9   778.9   778.9   779.0   779.0   779.0   779.0
        779.1   779.1   779.1   779.1   779.1   779.2   779.2   779.2   779.2   779.3   779.3   779.3   779.3   779.3   779.4
        779.4   779.4   779.4   779.5   779.5   779.6   779.7   780.0   780.5   781.3
  48    776.9   777.7   778.3   778.6   778.7   778.8   778.8   778.8   778.8   778.9   778.9   778.9   778.9   779.0   779.0
        779.0   779.0   779.0   779.1   779.1   779.1   779.1   779.2   779.2   779.2   779.2   779.3   779.3   779.3   779.3
        779.3   779.4   779.4   779.4   779.4   779.5   779.7   779.9   780.5   781.3
  49    776.9   777.7   778.2   778.5   778.6   778.7   778.7   778.8   778.8   778.8   778.8   778.9   778.9   778.9   778.9
        779.0   779.0   779.0   779.0   779.0   779.1   779.1   779.1   779.1   779.2   779.2   779.2   779.2   779.2   779.3
        779.3   779.3   779.3   779.4   779.4   779.5   779.6   779.9   780.4   781.2
  50    776.8   777.6   778.2   778.5   778.6   778.7   778.7   778.7   778.7   778.8   778.8   778.8   778.8   778.9   778.9
        778.9   778.9   778.9   779.0   779.0   779.0   779.0   779.1   779.1   779.1   779.1   779.1   779.2   779.2   779.2
        779.2   779.3   779.3   779.3   779.3   779.4   779.5   779.8   780.4   781.2
  51    776.8   777.6   778.1   778.4   778.5   778.6   778.6   778.7   778.7   778.7   778.7   778.8   778.8   778.8   778.8
        778.8   778.9   778.9   778.9   778.9   779.0   779.0   779.0   779.0   779.1   779.1   779.1   779.1   779.1   779.2
        779.2   779.2   779.2   779.3   779.3   779.4   779.5   779.8   780.3   781.1
  52    776.7   777.5   778.1   778.4   778.5   778.6   778.6   778.6   778.6   778.7   778.7   778.7   778.7   778.7   778.8
        778.8   778.8   778.8   778.9   778.9   778.9   778.9   779.0   779.0   779.0   779.0   779.0   779.1   779.1   779.1
        779.1   779.2   779.2   779.2   779.2   779.3   779.4   779.7   780.3   781.1
  53    776.7   777.5   778.0   778.3   778.4   778.5   778.5   778.6   778.6   778.6   778.6   778.7   778.7   778.7   778.7
        778.7   778.8   778.8   778.8   778.8   778.9   778.9   778.9   778.9   778.9   779.0   779.0   779.0   779.0   779.1
        779.1   779.1   779.1   779.2   779.2   779.3   779.4   779.7   780.2   781.0
  54    776.6   777.4   777.9   778.2   778.4   778.4   778.5   778.5   778.5   778.5   778.5   778.6   778.6   778.6   778.6
        778.7   778.7   778.7   778.7   778.8   778.8   778.8   778.8   778.8   778.9   778.9   778.9   778.9   779.0   779.0
        779.0   779.0   779.1   779.1   779.1   779.2   779.3   779.6   780.1   781.0
  55    776.4   777.2   777.8   778.1   778.2   778.3   778.3   778.3   778.3   778.4   778.4   778.4   778.4   778.5   778.5
        778.5   778.5   778.6   778.6   778.6   778.6   778.6   778.7   778.7   778.7   778.7   778.8   778.8   778.8   778.8
        778.8   778.9   778.9   778.9   779.0   779.0   779.2   779.4   780.0   780.8
  56    776.1   776.9   777.5   777.8   777.9   778.0   778.0   778.0   778.0   778.1   778.1   778.1   778.1   778.2   778.2
        778.2   778.2   778.2   778.3   778.3   778.3   778.3   778.4   778.4   778.4   778.4   778.4   778.5   778.5   778.5
        778.5   778.6   778.6   778.6   778.6   778.7   778.8   779.1   779.7   780.5
  57    775.5   776.3   776.9   777.1   777.3   777.3   777.4   777.4   777.4   777.4   777.5   777.5   777.5   777.5   777.5
        777.6   777.6   777.6   777.6   777.7   777.7   777.7   777.7   777.8   777.8   777.8   777.8   777.8   777.9   777.9
        777.9   777.9   778.0   778.0   778.0   778.1   778.2   778.5   779.0   779.9
  58    774.2   775.1   775.6   775.9   776.0   776.1   776.1   776.1   776.2   776.2   776.2   776.2   776.3   776.3   776.3
        776.3   776.3   776.4   776.4   776.4   776.4   776.5   776.5   776.5   776.5   776.6   776.6   776.6   776.6   776.6
        776.7   776.7   776.7   776.7   776.8   776.8   777.0   777.2   777.8   778.6
  59    772.4   773.2   773.7   774.0   774.1   774.2   774.2   774.3   774.3   774.3   774.3   774.4   774.4   774.4   774.4
        774.5   774.5   774.5   774.5   774.5   774.6   774.6   774.6   774.6   774.7   774.7   774.7   774.7   774.7   774.8
        774.8   774.8   774.8   774.9   774.9   775.0   775.1   775.4   775.9   776.7
  60    770.3   771.1   771.7   771.9   772.1   772.1   772.2   772.2   772.2   772.2   772.3   772.3   772.3   772.3   772.3
        772.4   772.4   772.4   772.4   772.5   772.5   772.5   772.5   772.6   772.6   772.6   772.6   772.6   772.7   772.7
        772.7   772.7   772.8   772.8   772.8   772.9   773.0   773.3   773.8   774.7
  61    768.2   769.0   769.6   769.8   770.0   770.1   770.1   770.1   770.1   770.2   770.2   770.2   770.2   770.2   770.3
        770.3   770.3   770.3   770.4   770.4   770.4   770.4   770.5   770.5   770.5   770.5   770.5   770.6   770.6   770.6
        770.6   770.7   770.7   770.7   770.7   770.8   770.9   771.2   771.8   772.6



                       INITIAL HEAD FOR LAYER   2
 READING ON UNIT   1 WITH FORMAT: (3X,15F8.3)         



                       INITIAL HEAD FOR LAYER   3
 READING ON UNIT   1 WITH FORMAT: (3X,15F8.3)         



                       INITIAL HEAD FOR LAYER   4
 READING ON UNIT   1 WITH FORMAT: (3X,15F8.3)         

 OUTPUT CONTROL IS SPECIFIED EVERY TIME STEP
 HEAD PRINT FORMAT CODE IS   4    DRAWDOWN PRINT FORMAT CODE IS   4
 HEADS WILL BE SAVED ON UNIT  33    DRAWDOWNS WILL BE SAVED ON UNIT   0

 COLUMN TO ROW ANISOTROPY =   1.000000    



                               DELR
 READING ON UNIT  11 WITH FORMAT: (10F8.2)            
   2000.0       1600.0       800.00       400.00       200.00    
   100.00       50.000       50.000       50.000       50.000    
   50.000       50.000       50.000       50.000       50.000    
   50.000       50.000       50.000       50.000       50.000    
   50.000       50.000       50.000       50.000       50.000    
   50.000       50.000       50.000       50.000       50.000    
   50.000       50.000       50.000       50.000       100.00    
   200.00       400.00       800.00       1600.0       2000.0    



                               DELC
 READING ON UNIT  11 WITH FORMAT: (10F8.2)            
   2000.0       2000.0       2000.0       1600.0       800.00    
   400.00       200.00       100.00       50.000       50.000    
   50.000       50.000       50.000       50.000       50.000    
   50.000       50.000       50.000       50.000       50.000    
   50.000       50.000       50.000       50.000       50.000    
   50.000       50.000       50.000       50.000       50.000    
   50.000       50.000       50.000       50.000       50.000    
   50.000       50.000       50.000       50.000       50.000    
   50.000       50.000       50.000       50.000       50.000    
   50.000       50.000       50.000       50.000       50.000    
   50.000       50.000       50.000       100.00       200.00    
   400.00       800.00       1600.0       2000.0       2000.0    
   2000.0    

     TRANSMIS. ALONG ROWS =   1500.000     FOR LAYER   1

 VERT HYD COND /THICKNESS =  0.2400000     FOR LAYER   1

     TRANSMIS. ALONG ROWS =   1500.000     FOR LAYER   2

 VERT HYD COND /THICKNESS =  0.4800000     FOR LAYER   2

     TRANSMIS. ALONG ROWS =   13000.00     FOR LAYER   3

 VERT HYD COND /THICKNESS =   2.080000     FOR LAYER   3

     TRANSMIS. ALONG ROWS =   13000.00     FOR LAYER   4
0


                                                         SOLUTION BY THE CONJUGATE-GRADIENT METHOD
                                                         -------------------------------------------
0                                      MAXIMUM NUMBER OF CALLS TO PCG ROUTINE =        1
                                           MAXIMUM ITERATIONS PER CALL TO PCG =       50
                                                  MATRIX PRECONDITIONING TYPE =        1
                           RELAXATION FACTOR (ONLY USED WITH PRECOND. TYPE 1) =    0.10000E+01
                    PARAMETER OF POLYMOMIAL PRECOND. = 2 (2) OR IS CALCULATED :        0
                                            HEAD CHANGE CRITERION FOR CLOSURE =    0.10000E-02
                                        RESIDUAL CHANGE CRITERION FOR CLOSURE =    0.10000E+00
                               PCG HEAD AND RESIDUAL CHANGE PRINTOUT INTERVAL =      999
                        PRINTING FROM SOLVER IS LIMITED(1) OR SUPPRESSED (>1) =        0
                                                            DAMPING PARAMETER =    0.10000E+01
1
                            STRESS PERIOD NO.   1, LENGTH =   1.000000    
                            ----------------------------------------------

                              NUMBER OF TIME STEPS =     1

                               MULTIPLIER FOR DELT =     1.000

                            INITIAL TIME STEP SIZE =   1.000000    


     8 WELLS

 LAYER   ROW   COL   STRESS RATE   WELL NO.
 ------------------------------------------
    3     11    29    -19230.          1
    3     19    26    -19230.          2
    3     26    23    -19230.          3
    3     33    20    -19230.          4
    3     40    17    -19230.          5
    3     48    14    -19230.          6
    3     48     9    -15384.          7
    3     52    17    -17307.          8

                 RECHARGE =  0.1140000E-02
0
     1 CALLS TO PCG ROUTINE FOR TIME STEP   1 IN STRESS PERIOD  1
    47 TOTAL ITERATIONS
0MAXIMUM HEAD CHANGE FOR EACH ITERATION (1 INDICATES THE FIRST INNER ITERATION):
0    HEAD CHANGE  LAYER,ROW,COL    HEAD CHANGE  LAYER,ROW,COL    HEAD CHANGE  LAYER,ROW,COL    HEAD CHANGE  LAYER,ROW,COL
 ------------------------------------------------------------------------------------------------------------------------
   1  -0.7791     (  3, 48, 14)  0  -0.4816     (  3, 40, 17)  0  -0.3177     (  3, 19, 26)  0  -0.2422     (  3, 33, 20)
   0  -0.2704     (  3, 26, 23)  0  -0.1628     (  3, 40, 17)  0   0.9606E-01 (  1,  7, 39)  0   0.7989E-01 (  2, 14,  7)
   0  -0.6738E-01 (  4, 27, 21)  0  -0.5652E-01 (  4, 45, 14)  0  -0.3866E-01 (  4,  7, 38)  0  -0.2938E-01 (  4, 41, 16)
   0   0.2357E-01 (  4,  6,  7)  0   0.2384E-01 (  4,  7, 18)  0  -0.1560E-01 (  3, 10, 30)  0   0.9786E-02 (  1,  7, 25)
   0  -0.7223E-02 (  2, 21, 37)  0   0.7434E-02 (  4,  5,  5)  0  -0.4699E-02 (  4,  6, 30)  0   0.2697E-02 (  4,  6, 12)
   0   0.1767E-02 (  2, 10, 30)  0   0.1700E-02 (  4,  8, 37)  0   0.1090E-02 (  4, 14, 21)  0  -0.1073E-02 (  1, 21, 34)
   0   0.7134E-03 (  4, 11, 26)  0  -0.4880E-03 (  4, 15,  9)  0   0.5017E-03 (  4, 22, 14)  0   0.2223E-03 (  4, 41, 27)
   0  -0.1847E-03 (  4, 39, 25)  0  -0.1713E-03 (  4, 42,  6)  0   0.9547E-04 (  4, 33,  5)  0   0.7238E-04 (  2, 28, 34)
   0  -0.1112E-03 (  4, 10, 22)  0   0.5202E-04 (  4,  7,  7)  0  -0.3509E-04 (  4, 40,  9)  0   0.2525E-04 (  4, 12,  5)
   0   0.1402E-04 (  4, 12,  4)  0   0.1625E-04 (  2, 10,  8)  0  -0.1008E-04 (  4, 22, 17)  0   0.9964E-05 (  4, 56,  8)
   0   0.7123E-05 (  4, 34,  7)  0   0.6248E-05 (  4, 10, 30)  0   0.4723E-05 (  4, 10, 13)  0   0.2715E-05 (  4, 26, 16)
   0  -0.2206E-05 (  4, 32, 18)  0   0.2304E-05 (  2, 21,  7)  0   0.1210E-05 (  2, 40, 31)
0
0MAXIMUM RESIDUAL FOR EACH ITERATION (1 INDICATES THE FIRST INNER ITERATION):
0     RESIDUAL    LAYER,ROW,COL     RESIDUAL    LAYER,ROW,COL     RESIDUAL    LAYER,ROW,COL     RESIDUAL    LAYER,ROW,COL
 ------------------------------------------------------------------------------------------------------------------------
   1   0.1819E+05 (  3, 40, 17)  0   0.1618E+05 (  3, 40, 17)  0   0.1389E+05 (  3, 19, 26)  0   0.1110E+05 (  3, 40, 17)
   0    6661.     (  3, 19, 26)  0    4101.     (  3, 33, 20)  0    3578.     (  4,  5,  3)  0    2815.     (  4,  5,  3)
   0    2165.     (  4,  5,  3)  0   -1492.     (  3,  6,  2)  0   -1194.     (  3,  7,  2)  0   -1042.     (  3,  7,  2)
   0   -842.4     (  3,  7,  2)  0   -654.7     (  3,  7,  2)  0   -520.2     (  3,  7,  2)  0   -378.9     (  3,  7,  2)
   0   -288.6     (  3,  7,  2)  0    202.4     (  4,  2, 39)  0    147.5     (  4,  2, 39)  0    98.02     (  4,  2, 39)
   0    67.48     (  3, 59,  2)  0    52.13     (  3, 59,  2)  0    45.20     (  3, 59,  2)  0    32.92     (  3, 59,  2)
   0    27.41     (  4, 58, 39)  0    24.49     (  4, 58, 39)  0    19.47     (  4, 58, 39)  0    14.16     (  4, 58, 39)
   0    9.700     (  4, 58, 39)  0    7.417     (  4, 58, 39)  0    5.782     (  4, 58, 39)  0    4.515     (  4, 58, 38)
   0    3.836     (  4, 58, 37)  0    2.782     (  4, 58, 37)  0    1.908     (  4, 58, 36)  0    1.463     (  4, 58, 36)
   0    1.236     (  4, 58, 36)  0   0.9046     (  4, 58, 36)  0   0.7666     (  4, 58, 36)  0   0.5675     (  4, 58, 36)
   0   0.4597     (  4, 59, 39)  0   0.3382     (  4, 59, 39)  0   0.2606     (  4, 59, 39)  0  -0.2008     (  4, 58,  2)
   0  -0.1758     (  4, 58,  2)  0  -0.1181     (  4, 58,  2)  0  -0.7756E-01 (  4, 58,  2)
0

 HEAD/DRAWDOWN PRINTOUT FLAG = 1     TOTAL BUDGET PRINTOUT FLAG = 0
 CELL-BY-CELL FLOW TERM FLAG = 1

 OUTPUT FLAGS FOR ALL LAYERS ARE THE SAME:
   HEAD    DRAWDOWN  HEAD  DRAWDOWN
 PRINTOUT  PRINTOUT  SAVE    SAVE
 ----------------------------------
     0         0       1       1

 SATURATED THICKNESS AND FLOW TERMS SAVED ON UNIT 16 FOR MT3D BY LINKMT3D PACKAGE 5.0

 HEAD WILL BE SAVED ON UNIT  33 AT END OF TIME STEP  1, STRESS PERIOD  1
1
  VOLUMETRIC BUDGET FOR ENTIRE MODEL AT END OF TIME STEP  1 IN STRESS PERIOD  1
  -----------------------------------------------------------------------------

     CUMULATIVE VOLUMES      L**3       RATES FOR THIS TIME STEP      L**3/T
     ------------------                 ------------------------

           IN:                                      IN:
           ---                                      ---
       CONSTANT HEAD =      447955.1880         CONSTANT HEAD =      447955.1880
               WELLS =           0.0000                 WELLS =           0.0000
            RECHARGE =      142522.7970              RECHARGE =      142522.7970

            TOTAL IN =      590478.0000              TOTAL IN =      590478.0000

          OUT:                                     OUT:
          ----                                     ----
       CONSTANT HEAD =      442406.7190         CONSTANT HEAD =      442406.7190
               WELLS =      148071.0000                 WELLS =      148071.0000
            RECHARGE =           0.0000              RECHARGE =           0.0000

           TOTAL OUT =      590477.7500             TOTAL OUT =      590477.7500

            IN - OUT =           0.2656              IN - OUT =           0.2656

 PERCENT DISCREPANCY =           0.00     PERCENT DISCREPANCY =           0.00






          TIME SUMMARY AT END OF TIME STEP  1 IN STRESS PERIOD  1
                    SECONDS     MINUTES      HOURS       DAYS        YEARS
                    -----------------------------------------------------------
   TIME STEP LENGTH  86400.      1440.0      24.000      1.0000     2.73785E-03
 STRESS PERIOD TIME  86400.      1440.0      24.000      1.0000     2.73785E-03
         TOTAL TIME  86400.      1440.0      24.000      1.0000     2.73785E-03
1
