                                  MODFLOW-2005     
      U.S. GEOLOGICAL SURVEY MODULAR FINITE-DIFFERENCE GROUND-WATER FLOW MODEL
                            VERSION 1.12.00 x/x/2015

 LIST FILE: freyberg.list
                         UNIT    2

 OPENING freyberg.dis
 FILE TYPE:DIS   UNIT   11   STATUS:OLD    
 FORMAT:FORMATTED              ACCESS:SEQUENTIAL          

 OPENING freyberg.bas
 FILE TYPE:BAS6   UNIT   13   STATUS:OLD    
 FORMAT:FORMATTED              ACCESS:SEQUENTIAL          

 OPENING freyberg.oc
 FILE TYPE:OC   UNIT   14   STATUS:OLD    
 FORMAT:FORMATTED              ACCESS:SEQUENTIAL          

 OPENING freyberg.hds
 FILE TYPE:DATA(BINARY)   UNIT   51   STATUS:REPLACE
 FORMAT:BINARY                 ACCESS:SEQUENTIAL          

 OPENING freyberg.ddn
 FILE TYPE:DATA(BINARY)   UNIT   52   STATUS:REPLACE
 FORMAT:BINARY                 ACCESS:SEQUENTIAL          

 OPENING freyberg.cbc
 FILE TYPE:DATA(BINARY)   UNIT   53   STATUS:REPLACE
 FORMAT:BINARY                 ACCESS:SEQUENTIAL          

 OPENING freyberg.lpf
 FILE TYPE:LPF   UNIT   15   STATUS:OLD    
 FORMAT:FORMATTED              ACCESS:SEQUENTIAL          

 OPENING freyberg.riv
 FILE TYPE:RIV   UNIT   18   STATUS:OLD    
 FORMAT:FORMATTED              ACCESS:SEQUENTIAL          

 OPENING freyberg.rch
 FILE TYPE:RCH   UNIT   19   STATUS:OLD    
 FORMAT:FORMATTED              ACCESS:SEQUENTIAL          

 OPENING freyberg.pcg
 FILE TYPE:PCG   UNIT   27   STATUS:OLD    
 FORMAT:FORMATTED              ACCESS:SEQUENTIAL          

 BAS -- BASIC PACKAGE, VERSION 7, 5/2/2005 INPUT READ FROM UNIT   13
 
 MODFLOW was compiled using mixed precision
 Precision of REAL variables:           6
 Precision of DOUBLE PRECISION variables:          15

 DISCRETIZATION INPUT DATA READ FROM UNIT   11
 # Discretization file for MODFLOW, generated by Flopy.
    1 LAYERS        40 ROWS        20 COLUMNS
    1 STRESS PERIOD(S) IN SIMULATION
 MODEL TIME UNIT IS SECONDS
 MODEL LENGTH UNIT IS METERS
  Confining bed flag for each layer:
   0



                               DELR
 READING ON UNIT   11 WITH FORMAT: (20E15.6)           



                               DELC
 READING ON UNIT   11 WITH FORMAT: (40E15.6)           

 TOP ELEVATION OF LAYER 1 =   35.0000    



             MODEL LAYER BOTTOM EL. FOR LAYER   1
 READING ON UNIT   11 WITH FORMAT: (20E15.6)           


 STRESS PERIOD     LENGTH       TIME STEPS     MULTIPLIER FOR DELT    SS FLAG
 ----------------------------------------------------------------------------
        1         10.00000          1                    1.200         SS

 STEADY-STATE SIMULATION



 
 # Basic package file for MODFLOW, generated by Flopy.                           
 THE FREE FORMAT OPTION HAS BEEN SELECTED



                     BOUNDARY ARRAY FOR LAYER   1
 READING ON UNIT   13 WITH FORMAT: (20I10)             

 AQUIFER HEAD WILL BE SET TO   999.00     AT ALL NO-FLOW NODES (IBOUND=0).



                       INITIAL HEAD FOR LAYER   1
 READING ON UNIT   13 WITH FORMAT: (20E15.6)           
 # Output control package file for MODFLOW, generated by Flopy.

 OUTPUT CONTROL IS SPECIFIED ONLY AT TIME STEPS FOR WHICH OUTPUT IS DESIRED
 COMPACT CELL-BY-CELL BUDGET FILES WILL BE WRITTEN
 AUXILIARY DATA WILL BE SAVED IN CELL-BY-CELL BUDGET FILES
 HEAD PRINT FORMAT CODE IS   0    DRAWDOWN PRINT FORMAT CODE IS   0
 HEADS WILL BE SAVED ON UNIT   51    DRAWDOWNS WILL BE SAVED ON UNIT   52

 LPF -- LAYER-PROPERTY FLOW PACKAGE, VERSION 7, 5/2/2005
         INPUT READ FROM UNIT   15
 # LPF for MODFLOW, generated by Flopy.
 CELL-BY-CELL FLOWS WILL BE SAVED ON UNIT   53
 HEAD AT CELLS THAT CONVERT TO DRY= -1.00000E+30
 No named parameters

   LAYER FLAGS:
 LAYER       LAYTYP        LAYAVG         CHANI        LAYVKA        LAYWET
 ---------------------------------------------------------------------------
    1             1             0     1.000E+00             0             0

   INTERPRETATION OF LAYER FLAGS:
                        INTERBLOCK     HORIZONTAL    DATA IN
         LAYER TYPE   TRANSMISSIVITY   ANISOTROPY   ARRAY VKA   WETTABILITY
 LAYER      (LAYTYP)      (LAYAVG)       (CHANI)      (LAYVKA)      (LAYWET)
 ---------------------------------------------------------------------------
    1   CONVERTIBLE      HARMONIC     1.000E+00    VERTICAL K  NON-WETTABLE

 WETTING CAPABILITY IS NOT ACTIVE IN ANY LAYER



              HYD. COND. ALONG ROWS FOR LAYER   1
 READING ON UNIT   15 WITH FORMAT: (FREE)              



                VERTICAL HYD. COND. FOR LAYER   1
 READING ON UNIT   15 WITH FORMAT: (FREE)              

 RIV -- RIVER PACKAGE, VERSION 7, 5/2/2005 INPUT READ FROM UNIT   18
 # RIV for MODFLOW, generated by Flopy.
 No named parameters
 MAXIMUM OF     40 ACTIVE RIVER REACHES AT ONE TIME
 CELL-BY-CELL FLOWS WILL BE SAVED ON UNIT   53
 AUXILIARY RIVER VARIABLE: IFACE           


     0 River parameters

 RCH -- RECHARGE PACKAGE, VERSION 7, 5/2/2005 INPUT READ FROM UNIT   19
 # RCH for MODFLOW, generated by Flopy.
 No named parameters
 OPTION 3 -- RECHARGE TO HIGHEST ACTIVE NODE IN EACH VERTICAL COLUMN
 CELL-BY-CELL FLOWS WILL BE SAVED ON UNIT   53


     0 Recharge parameters

 PCG -- CONJUGATE-GRADIENT SOLUTION PACKAGE, VERSION 7, 5/2/2005
 # PCG for MODFLOW, generated by Flopy.
 MAXIMUM OF    100 CALLS OF SOLUTION ROUTINE
 MAXIMUM OF     25 INTERNAL ITERATIONS PER CALL TO SOLUTION ROUTINE
 MATRIX PRECONDITIONING TYPE :    1



                                    SOLUTION BY THE CONJUGATE-GRADIENT METHOD
                                   -------------------------------------------
                    MAXIMUM NUMBER OF CALLS TO PCG ROUTINE =      100
                        MAXIMUM ITERATIONS PER CALL TO PCG =       25
                               MATRIX PRECONDITIONING TYPE =        1
        RELAXATION FACTOR (ONLY USED WITH PRECOND. TYPE 1) =    0.10000E+01
 PARAMETER OF POLYNOMIAL PRECOND. = 2 (2) OR IS CALCULATED :        2
                         HEAD CHANGE CRITERION FOR CLOSURE =    0.10000E-04
                     RESIDUAL CHANGE CRITERION FOR CLOSURE =    0.10000E-02
            PCG HEAD AND RESIDUAL CHANGE PRINTOUT INTERVAL =        5
     PRINTING FROM SOLVER IS LIMITED(1) OR SUPPRESSED (>1) =        0
                            STEADY-STATE DAMPING PARAMETER =    0.10000E+01
                               TRANSIENT DAMPING PARAMETER =    0.10000E+01
1
                            STRESS PERIOD NO.    1, LENGTH =   10.00000    
                            -----------------------------------------------

                              NUMBER OF TIME STEPS =     1

                               MULTIPLIER FOR DELT =     1.200

                            INITIAL TIME STEP SIZE =   10.00000    

 REACH NO.  LAYER   ROW   COL     STAGE      CONDUCTANCE     BOTTOM EL.         IFACE           
 -----------------------------------------------------------------------------------------------
      1      1      1     15       20.10          0.5000E-01       20.00           0.000    
      2      1      2     15       19.87          0.5000E-01       19.75           0.000    
      3      1      3     15       19.65          0.5000E-01       19.50           0.000    
      4      1      4     15       19.42          0.5000E-01       19.25           0.000    
      5      1      5     15       19.19          0.5000E-01       19.00           0.000    
      6      1      6     15       18.97          0.5000E-01       18.75           0.000    
      7      1      7     15       18.74          0.5000E-01       18.50           0.000    
      8      1      8     15       18.51          0.5000E-01       18.25           0.000    
      9      1      9     15       18.28          0.5000E-01       18.00           0.000    
     10      1     10     15       19.06          0.5000E-01       17.75           0.000    
     11      1     11     15       17.83          0.5000E-01       17.50           0.000    
     12      1     12     15       17.60          0.5000E-01       17.25           0.000    
     13      1     13     15       17.38          0.5000E-01       17.00           0.000    
     14      1     14     15       17.15          0.5000E-01       16.75           0.000    
     15      1     15     15       16.92          0.5000E-01       16.50           0.000    
     16      1     16     15       16.70          0.5000E-01       16.25           0.000    
     17      1     17     15       16.47          0.5000E-01       16.00           0.000    
     18      1     18     15       16.24          0.5000E-01       15.75           0.000    
     19      1     19     15       16.02          0.5000E-01       15.50           0.000    
     20      1     20     15       15.79          0.5000E-01       15.25           0.000    
     21      1     21     15       15.56          0.5000E-01       15.00           0.000    
     22      1     22     15       15.33          0.5000E-01       14.75           0.000    
     23      1     23     15       15.11          0.5000E-01       14.50           0.000    
     24      1     24     15       14.88          0.5000E-01       14.25           0.000    
     25      1     25     15       14.65          0.5000E-01       14.00           0.000    
     26      1     26     15       14.43          0.5000E-01       13.75           0.000    
     27      1     27     15       14.20          0.5000E-01       13.50           0.000    
     28      1     28     15       13.97          0.5000E-01       13.25           0.000    
     29      1     29     15       13.75          0.5000E-01       13.00           0.000    
     30      1     30     15       13.52          0.5000E-01       12.75           0.000    
     31      1     31     15       13.29          0.5000E-01       12.50           0.000    
     32      1     32     15       13.07          0.5000E-01       12.25           0.000    
     33      1     33     15       12.84          0.5000E-01       12.00           0.000    
     34      1     34     15       12.61          0.5000E-01       11.75           0.000    
     35      1     35     15       12.38          0.5000E-01       11.50           0.000    
     36      1     36     15       12.16          0.5000E-01       11.25           0.000    
     37      1     37     15       11.93          0.5000E-01       11.00           0.000    
     38      1     38     15       11.70          0.5000E-01       10.75           0.000    
     39      1     39     15       11.48          0.5000E-01       10.50           0.000    
     40      1     40     15       11.25          0.5000E-01       10.25           0.000    

     40 RIVER REACHES



                           RECHARGE
 READING ON UNIT   19 WITH FORMAT: (FREE)              
 
 SOLVING FOR HEAD 


    10 CALLS TO PCG ROUTINE FOR TIME STEP   1 IN STRESS PERIOD    1
   141 TOTAL ITERATIONS

 MAXIMUM HEAD CHANGE FOR EACH ITERATION (1 INDICATES THE FIRST INNER ITERATION):

    HEAD CHANGE    HEAD CHANGE    HEAD CHANGE    HEAD CHANGE    HEAD CHANGE 
   LAYER,ROW,COL  LAYER,ROW,COL  LAYER,ROW,COL  LAYER,ROW,COL  LAYER,ROW,COL
 ---------------------------------------------------------------------------
  1  -91.99      0  -40.95      0   25.47      0   15.92      0   6.517    
   (  1, 39,  9)  (  1,  9,  4)  (  1,  9,  4)  (  1, 39,  9)  (  1, 35, 10)
  0  -3.560      0  -1.875      0 -0.6099      0 -0.3559      0 -0.1443    
   (  1, 30,  7)  (  1, 19,  2)  (  1, 37,  5)  (  1,  8,  5)  (  1, 30,  7)
  0 -0.9594E-01  0  0.7371E-01  0  0.3202E-01  0  0.2146E-01  0 -0.8491E-02
   (  1,  9,  4)  (  1,  9,  4)  (  1,  8,  5)  (  1, 36, 11)  (  1, 38, 12)
  0  0.3576E-02  0 -0.1281E-02  0 -0.5721E-03  0 -0.2889E-03  0  0.2552E-03
   (  1, 37, 10)  (  1, 35,  8)  (  1,  1,  2)  (  1, 31, 10)  (  1, 30,  7)
  0 -0.1898E-03  0  0.7173E-04  0  0.6646E-04  0 -0.2791E-04  0  0.1395E-04
   (  1,  9,  2)  (  1,  9,  4)  (  1, 36, 10)  (  1, 31,  6)  (  1, 16,  3)
  1   4.974      0   3.900      0   2.348      0   1.045      0  0.6600    
   (  1,  9,  4)  (  1,  8,  5)  (  1, 32,  1)  (  1, 30,  7)  (  1,  8,  5)
  0  0.2923      0  0.2086      0  0.1250      0  0.4271E-01  0  0.3250E-01
   (  1, 32,  6)  (  1,  2,  4)  (  1,  4,  1)  (  1, 38, 13)  (  1,  4,  1)
  0  0.1318E-01  0  0.8992E-02  0  0.5102E-02  0 -0.2432E-02  0 -0.7033E-03
   (  1,  2,  8)  (  1,  9,  3)  (  1,  1,  2)  (  1, 32,  9)  (  1, 25,  3)
  0  0.3222E-03  0 -0.1717E-03  0  0.8746E-04  0  0.4786E-04  0 -0.3009E-04
   (  1, 36, 10)  (  1, 30,  7)  (  1, 30,  6)  (  1, 36, 19)  (  1, 36, 19)
  0  0.1757E-04  0 -0.8511E-05  1  -1.546      0  -1.461      0  -1.287    
   (  1,  9,  3)  (  1,  9,  4)  (  1,  9,  4)  (  1,  8,  5)  (  1, 16,  1)
  0 -0.6268      0 -0.3367      0 -0.1038      0 -0.1301      0 -0.4315E-01
   (  1, 23,  1)  (  1, 10,  4)  (  1, 27,  1)  (  1,  1,  5)  (  1,  1,  9)
  0 -0.2643E-01  0  0.1333E-01  0 -0.7470E-02  0  0.6022E-02  0  0.2616E-02
   (  1, 39,  9)  (  1, 27,  8)  (  1,  9,  4)  (  1,  9,  4)  (  1, 25,  9)
  0  0.1271E-02  0 -0.5709E-03  0 -0.3601E-03  0 -0.8376E-04  0  0.7405E-04
   (  1, 33,  2)  (  1, 16,  9)  (  1, 36, 10)  (  1, 39, 14)  (  1, 30,  6)
  0 -0.4671E-04  0  0.3171E-04  0 -0.1665E-04  0  0.6719E-05  1  0.3679    
   (  1,  9,  1)  (  1,  9,  4)  (  1, 31, 11)  (  1, 29,  7)  (  1,  9,  4)
  0  0.3360      0  0.2947      0  0.1368      0  0.7956E-01  0  0.2400E-01
   (  1,  8,  5)  (  1, 16,  1)  (  1, 22,  1)  (  1, 10,  4)  (  1,  1,  6)
  0 -0.2552E-01  0  0.8535E-02  0  0.5586E-02  0 -0.2464E-02  0  0.1258E-02
   (  1, 31,  5)  (  1,  1,  8)  (  1, 39,  9)  (  1, 32,  1)  (  1,  9,  4)
  0 -0.1037E-02  0  0.4341E-03  0 -0.2272E-03  0  0.8935E-04  0  0.4972E-04
   (  1, 11,  2)  (  1, 35, 11)  (  1, 37, 10)  (  1, 30, 10)  (  1, 36, 10)
  0 -0.2106E-04  0  0.8314E-05  1 -0.7598E-01  0 -0.7621E-01  0 -0.5865E-01
   (  1, 25, 10)  (  1, 33,  8)  (  1,  9,  4)  (  1, 13,  1)  (  1, 16,  1)
  0 -0.2797E-01  0 -0.1657E-01  0 -0.6495E-02  0  0.5204E-02  0 -0.1855E-02
   (  1, 22,  1)  (  1, 10,  4)  (  1,  1,  5)  (  1, 31,  4)  (  1, 19,  2)
  0 -0.1137E-02  0  0.4478E-03  0 -0.3848E-03  0  0.2219E-03  0 -0.1095E-03
   (  1, 37,  5)  (  1, 10,  3)  (  1,  9,  4)  (  1, 10,  2)  (  1, 36,  8)
  0 -0.5455E-04  0 -0.2121E-04  0 -0.1022E-04  0  0.4899E-05  1  0.1254E-01
   (  1, 34, 10)  (  1, 32,  5)  (  1, 24,  9)  (  1, 26, 10)  (  1,  9,  3)
  0  0.1325E-01  0  0.9022E-02  0  0.5021E-02  0 -0.2092E-02  0  0.1322E-02
   (  1, 13,  1)  (  1, 16,  1)  (  1, 21,  1)  (  1, 30,  7)  (  1,  1,  5)
  0 -0.5000E-03  0  0.3016E-03  0  0.1810E-03  0  0.8522E-04  0 -0.6048E-04
   (  1, 31,  3)  (  1, 32,  6)  (  1, 37,  5)  (  1, 35, 10)  (  1,  9,  2)
  0  0.3175E-04  0  0.1397E-04  0  0.9241E-05  1 -0.1750E-02  0 -0.1922E-02
   (  1, 16,  4)  (  1,  1,  2)  (  1, 34, 10)  (  1,  9,  3)  (  1, 13,  1)
  0 -0.1137E-02  0 -0.7481E-03  0  0.2627E-03  0 -0.1132E-03  0  0.4499E-04
   (  1, 16,  1)  (  1, 11,  4)  (  1, 32,  6)  (  1,  1,  6)  (  1, 30,  7)
  0 -0.4215E-04  0 -0.2317E-04  0 -0.1279E-04  0  0.8105E-05  1  0.2043E-03
   (  1, 29,  7)  (  1, 37,  5)  (  1, 35, 10)  (  1,  9,  2)  (  1,  9,  2)
  0  0.2368E-03  0  0.1188E-03  0  0.8679E-04  0  0.2146E-04  0 -0.2508E-04
   (  1, 13,  1)  (  1, 16,  1)  (  1, 11,  4)  (  1, 30,  7)  (  1, 25,  3)
  0  0.7919E-05  1 -0.2131E-04  0 -0.2028E-04  0 -0.1255E-04  0 -0.6725E-05
   (  1, 33,  8)  (  1, 10,  3)  (  1, 13,  1)  (  1, 14,  1)  (  1, 19,  1)
  1 -0.3475E-05
   (  1,  8,  5)

 MAXIMUM RESIDUAL FOR EACH ITERATION (1 INDICATES THE FIRST INNER ITERATION):

    RESIDUAL       RESIDUAL       RESIDUAL       RESIDUAL       RESIDUAL    
   LAYER,ROW,COL  LAYER,ROW,COL  LAYER,ROW,COL  LAYER,ROW,COL  LAYER,ROW,COL
 ---------------------------------------------------------------------------
  1 -0.6720E-01  0 -0.4832E-01  0 -0.3429E-01  0 -0.1973E-01  0 -0.8864E-02
   (  1, 39,  9)  (  1, 39,  9)  (  1, 39,  7)  (  1, 39,  7)  (  1, 39,  7)
  0 -0.4961E-02  0  0.2603E-02  0 -0.1295E-02  0 -0.8899E-03  0 -0.5431E-03
   (  1, 39,  7)  (  1, 38,  7)  (  1, 39, 15)  (  1, 39, 15)  (  1, 39, 15)
  0 -0.3367E-03  0 -0.2492E-03  0 -0.1675E-03  0 -0.8424E-04  0 -0.3959E-04
   (  1, 39, 15)  (  1, 39, 15)  (  1, 39, 15)  (  1, 39, 15)  (  1, 39, 15)
  0 -0.1921E-04  0 -0.8856E-05  0 -0.3439E-05  0 -0.1757E-05  0 -0.1175E-05
   (  1, 39, 15)  (  1, 39, 15)  (  1, 39, 15)  (  1, 39, 15)  (  1, 39, 15)
  0 -0.8869E-06  0 -0.4805E-06  0 -0.2333E-06  0 -0.1337E-06  0 -0.5629E-07
   (  1, 39, 15)  (  1, 39, 15)  (  1, 39, 15)  (  1, 39, 15)  (  1, 39, 15)
  1 -0.2873E-02  0 -0.2394E-02  0 -0.1728E-02  0 -0.1234E-02  0 -0.6855E-03
   (  1, 10, 15)  (  1, 10, 15)  (  1, 10, 15)  (  1, 10, 15)  (  1, 10, 15)
  0 -0.4304E-03  0 -0.2270E-03  0 -0.1258E-03  0 -0.6405E-04  0 -0.3067E-04
   (  1, 10, 15)  (  1, 10, 15)  (  1,  1, 15)  (  1,  1, 15)  (  1,  1, 15)
  0 -0.1246E-04  0 -0.9192E-05  0 -0.4358E-05  0 -0.1955E-05  0 -0.9718E-06
   (  1,  1, 15)  (  1,  1, 15)  (  1,  1, 15)  (  1,  1, 15)  (  1,  1, 15)
  0 -0.4467E-06  0 -0.2119E-06  0 -0.1503E-06  0 -0.8129E-07  0 -0.4601E-07
   (  1,  1, 15)  (  1,  1, 15)  (  1,  1, 15)  (  1,  1, 15)  (  1,  1, 15)
  0 -0.3857E-07  0 -0.2217E-07  1  0.1331E-02  0  0.4658E-03  0  0.3172E-03
   (  1,  1, 15)  (  1,  1, 15)  (  1,  8,  5)  (  1,  1,  2)  (  1, 10,  4)
  0  0.2983E-03  0 -0.1625E-03  0 -0.1002E-03  0  0.6554E-04  0  0.3827E-04
   (  1, 10,  4)  (  1,  8,  6)  (  1,  8,  6)  (  1,  2,  1)  (  1,  1, 15)
  0  0.2306E-04  0  0.1353E-04  0  0.1086E-04  0  0.5360E-05  0  0.2498E-05
   (  1,  1, 15)  (  1,  1, 15)  (  1,  1, 15)  (  1,  1, 15)  (  1,  1,  2)
  0  0.1212E-05  0  0.5629E-06  0  0.2512E-06  0  0.1368E-06  0  0.1052E-06
   (  1,  1, 15)  (  1,  1, 15)  (  1,  1, 15)  (  1,  2,  1)  (  1,  2,  1)
  0  0.6278E-07  0  0.4746E-07  0  0.2076E-07  0  0.1181E-07  1 -0.2653E-03
   (  1,  2,  1)  (  1,  2,  1)  (  1,  1, 15)  (  1,  1, 15)  (  1,  8,  5)
  0  0.9202E-04  0 -0.7502E-04  0 -0.6401E-04  0  0.3287E-04  0  0.1730E-04
   (  1,  8,  7)  (  1, 10,  4)  (  1, 10,  4)  (  1,  8,  6)  (  1,  8,  6)
  0 -0.1120E-04  0 -0.6330E-05  0 -0.3903E-05  0 -0.1892E-05  0 -0.1477E-05
   (  1,  7,  6)  (  1,  1, 15)  (  1,  1, 15)  (  1,  1, 15)  (  1,  1, 15)
  0 -0.9194E-06  0 -0.3870E-06  0 -0.2116E-06  0 -0.9585E-07  0 -0.4253E-07
   (  1,  1, 15)  (  1,  1, 15)  (  1,  1, 15)  (  1,  1, 15)  (  1,  1, 15)
  0 -0.2306E-07  0 -0.1485E-07  1 -0.6288E-04  0 -0.2152E-04  0  0.2060E-04
   (  1,  2,  1)  (  1,  2,  1)  (  1,  9,  4)  (  1,  8,  7)  (  1, 10,  4)
  0  0.1532E-04  0 -0.7251E-05  0 -0.3977E-05  0 -0.2608E-05  0  0.1324E-05
   (  1, 10,  4)  (  1,  8,  6)  (  1, 10,  3)  (  1, 10,  3)  (  1,  7,  6)
  0  0.7615E-06  0  0.4876E-06  0  0.3923E-06  0  0.1966E-06  0  0.8434E-07
   (  1,  1, 15)  (  1,  1, 15)  (  1,  1, 15)  (  1,  1, 15)  (  1,  1,  2)
  0  0.4258E-07  0  0.1881E-07  0  0.9230E-08  0  0.5009E-08  1  0.1095E-04
   (  1,  1, 15)  (  1,  1, 15)  (  1,  1, 15)  (  1,  2,  1)  (  1,  9,  4)
  0  0.3771E-05  0 -0.3745E-05  0 -0.2120E-05  0 -0.1274E-05  0  0.6051E-06
   (  1, 21,  4)  (  1, 10,  4)  (  1, 10,  4)  (  1, 10,  4)  (  1, 10,  3)
  0  0.4111E-06  0 -0.2246E-06  0 -0.1113E-06  0 -0.6691E-07  0 -0.5309E-07
   (  1, 10,  3)  (  1,  7,  6)  (  1,  1, 15)  (  1,  1, 15)  (  1,  1, 15)
  0 -0.3028E-07  0 -0.1350E-07  0 -0.6459E-08  1 -0.1626E-05  0 -0.5989E-06
   (  1,  1,  2)  (  1,  1,  2)  (  1,  1, 15)  (  1,  9,  4)  (  1, 21,  4)
  0  0.5629E-06  0  0.2499E-06  0  0.1419E-06  0 -0.8252E-07  0 -0.4754E-07
   (  1, 10,  4)  (  1, 10,  4)  (  1, 10,  4)  (  1, 10,  3)  (  1, 10,  3)
  0 -0.2769E-07  0  0.1449E-07  0 -0.9292E-08  0 -0.7918E-08  1  0.2047E-06
   (  1, 11,  1)  (  1,  7,  6)  (  1, 11,  2)  (  1, 11,  2)  (  1,  9,  4)
  0  0.7823E-07  0 -0.6910E-07  0 -0.3390E-07  0 -0.2286E-07  0  0.1020E-07
   (  1, 21,  4)  (  1, 10,  4)  (  1, 10,  4)  (  1, 10,  4)  (  1, 10,  3)
  0  0.7075E-08  1 -0.2247E-07  0  0.8522E-08  0  0.6918E-08  0  0.3870E-08
   (  1, 10,  3)  (  1,  9,  4)  (  1, 18,  1)  (  1, 18,  1)  (  1, 11,  4)
  1  0.2932E-08
   (  1, 10,  4)



 OUTPUT CONTROL FOR STRESS PERIOD    1   TIME STEP    1
    SAVE HEAD FOR ALL LAYERS
    SAVE DRAWDOWN FOR ALL LAYERS
    SAVE BUDGET
    PRINT BUDGET
 UBDSV2 SAVING "   CONSTANT HEAD" ON UNIT  53 AT TIME STEP  1, STRESS PERIOD   1
 UBDSV1 SAVING "FLOW RIGHT FACE " ON UNIT  53 AT TIME STEP  1, STRESS PERIOD   1
 UBDSV1 SAVING "FLOW FRONT FACE " ON UNIT  53 AT TIME STEP  1, STRESS PERIOD   1
 UBDSV4 SAVING "   RIVER LEAKAGE" ON UNIT  53 AT TIME STEP  1, STRESS PERIOD   1
 UBDSV3 SAVING "        RECHARGE" ON UNIT  53 AT TIME STEP  1, STRESS PERIOD   1

 HEAD WILL BE SAVED ON UNIT   51 AT END OF TIME STEP    1, STRESS PERIOD    1

 DRAWDOWN WILL BE SAVED ON UNIT   52 AT END OF TIME STEP    1, STRESS PERIOD    1
1
  VOLUMETRIC BUDGET FOR ENTIRE MODEL AT END OF TIME STEP    1, STRESS PERIOD   1
  ------------------------------------------------------------------------------

     CUMULATIVE VOLUMES      L**3       RATES FOR THIS TIME STEP      L**3/T
     ------------------                 ------------------------

           IN:                                      IN:
           ---                                      ---
             STORAGE =           0.0000               STORAGE =           0.0000
       CONSTANT HEAD =           0.0000         CONSTANT HEAD =           0.0000
       RIVER LEAKAGE =       2.4088E-02         RIVER LEAKAGE =       2.4088E-03
            RECHARGE =           0.6950              RECHARGE =       6.9500E-02

            TOTAL IN =           0.7191              TOTAL IN =       7.1909E-02

          OUT:                                     OUT:
          ----                                     ----
             STORAGE =           0.0000               STORAGE =           0.0000
       CONSTANT HEAD =       5.9513E-02         CONSTANT HEAD =       5.9513E-03
       RIVER LEAKAGE =           0.6596         RIVER LEAKAGE =       6.5958E-02
            RECHARGE =           0.0000              RECHARGE =           0.0000

           TOTAL OUT =           0.7191             TOTAL OUT =       7.1909E-02

            IN - OUT =      -6.3777E-06              IN - OUT =      -6.4075E-07

 PERCENT DISCREPANCY =          -0.00     PERCENT DISCREPANCY =          -0.00






         TIME SUMMARY AT END OF TIME STEP    1 IN STRESS PERIOD    1
                    SECONDS     MINUTES      HOURS       DAYS        YEARS
                    -----------------------------------------------------------
   TIME STEP LENGTH  10.000     0.16667     2.77778E-03 1.15741E-04 3.16881E-07
 STRESS PERIOD TIME  10.000     0.16667     2.77778E-03 1.15741E-04 3.16881E-07
         TOTAL TIME  10.000     0.16667     2.77778E-03 1.15741E-04 3.16881E-07
1

 Run end date and time (yyyy/mm/dd hh:mm:ss): 2016/03/09 17:28:04
 Elapsed run time:  0.033 Seconds

