                             MODFLOW 6 PROFESSIONAL
                U.S. GEOLOGICAL SURVEY MODULAR HYDROLOGIC MODEL
                  VERSION 6.5.0.dev0 (preliminary) 07/13/2023
                               ***DEVELOP MODE***

        MODFLOW 6 compiled Oct 30 2023 08:23:02 with GCC version 11.3.0

This software is preliminary or provisional and is subject to 
revision. It is being provided to meet the need for timely best 
science. The software has not received final approval by the U.S. 
Geological Survey (USGS). No warranty, expressed or implied, is made 
by the USGS or the U.S. Government as to the functionality of the 
software and related material nor shall the fact of release 
constitute any such warranty. The software is provided on the 
condition that neither the USGS nor the U.S. Government shall be held 
liable for any damages resulting from the authorized or unauthorized 
use of the software.


As a work of the United States Government, this USGS product is 
in the public domain within the United States. You can copy, 
modify, distribute, and perform the work, even for commercial 
purposes, all without asking permission. Additionally, USGS 
waives copyright and related rights in the work worldwide 
through CC0 1.0 Universal Public Domain Dedication 
(https://creativecommons.org/publicdomain/zero/1.0/).

The following GNU Lesser General Public License (LGPL) libraries
are used in this USGS product:

    SPARSKIT version 2.0
      ilut, luson, and qsplit 
      (https://www-users.cse.umn.edu/~saad/software/SPARSKIT/)

    RCM - Reverse Cuthill McKee Ordering
      (https://people.math.sc.edu/Burkardt/f_src/rcm/rcm.html)

    BLAS - Basic Linear Algebra Subprograms Level 1
      (https://people.math.sc.edu/Burkardt/f_src/blas1_d/blas1_d.html)

    SPARSEKIT - Sparse Matrix Utility Package
      amux, dperm, dvperm, rperm, and cperm
      (https://people.sc.fsu.edu/~jburkardt/f77_src/sparsekit/sparsekit.html)

The following BSD-3 License libraries are used in this USGS product:

    Modern Fortran DAG Library
      Copyright (c) 2018, Jacob Williams
      All rights reserved.
      (https://github.com/jacobwilliams/daglib)

The following 2-clause BSD License library is used in this
USGS product:

    PETSc, the Portable, Extensible Toolkit for Scientific
    Computation Library
      Copyright (c) 1991-2021, UChicago Argonne, LLC
      and the PETSc Development Team All rights reserved.
      (https://petsc.org/release/)

MODFLOW 6 compiler options: -cpp -I src/libmf6core.a.p -I src -I ../src -I
src/libmf6_external.a.p -I
/home/mreno/.clone/external/petsc/arch-linux-c-debug/include -I
/home/mreno/.clone/external/petsc/include -I
/home/mreno/.clone/external/petsc/arch-linux-c-debug/lib -I
/home/mreno/miniconda3/envs/modflow6/include -I -fdiagnostics-color=always
-imultiarch x86_64-linux-gnu -D _FILE_OFFSET_BITS=64 -D __linux__ -D
__WITH_PETSC__ -D __WITH_MPI__ -D __WITH_NETCDF__ -mtune=generic
-march=x86-64 -g -O2 -Wall -Wpedantic -Wcharacter-truncation
-Wno-unused-dummy-argument -Wno-intrinsic-shadow -Wno-maybe-uninitialized
-Wno-uninitialized -std=f2008 -fall-intrinsics -fbacktrace -fcheck=all
-ffpe-trap=overflow,zero,invalid -ffpe-summary=overflow
-ffpe-trap=overflow,zero,invalid -fPIC -J src/libmf6core.a.p
-fpre-include=/usr/include/finclude/math-vector-fortran.h

System command used to initiate simulation:
/home/mreno/.clone/usgs/w/netcdf/2/modflow6/bin/mf6

MODFLOW was compiled using uniform precision.

Real Variables
  KIND: 8
  TINY (smallest non-zero value):    2.225074-308
  HUGE (largest value):    1.797693+308
  PRECISION: 15
  SIZE IN BITS: 64

Integer Variables
  KIND: 4
  HUGE (largest value): 2147483647
  SIZE IN BITS: 32

Long Integer Variables
  KIND: 8
  HUGE (largest value): 9223372036854775807
  SIZE IN BITS: 64

Logical Variables
  KIND: 4
  SIZE IN BITS: 32


 OPENED mfsim.nam
 FILE TYPE:NAM6      UNIT 1001   STATUS:OLD                 
 FORMAT:FORMATTED              ACCESS:SEQUENTIAL          
 ACTION:READ                

 # File generated by Flopy version 3.5.0.dev0 on 10/30/2023 at 09:02:45.

 OPENED csub_sub03a.nam
 FILE TYPE:GWF6      UNIT 1002   STATUS:OLD                 
 FORMAT:FORMATTED              ACCESS:SEQUENTIAL          
 ACTION:READ                

 # File generated by Flopy version 3.5.0.dev0 on 10/30/2023 at 09:02:45.

 OPENED csub_sub03a.dis
 FILE TYPE:DIS6      UNIT 1003   STATUS:OLD                 
 FORMAT:FORMATTED              ACCESS:SEQUENTIAL          
 ACTION:READ                

 # File generated by Flopy version 3.5.0.dev0 on 10/30/2023 at 09:02:45.

 OPENED csub_sub03a.npf
 FILE TYPE:NPF6      UNIT 1004   STATUS:OLD                 
 FORMAT:FORMATTED              ACCESS:SEQUENTIAL          
 ACTION:READ                

 # File generated by Flopy version 3.5.0.dev0 on 10/30/2023 at 09:02:45.

 OPENED csub_sub03a.sto
 FILE TYPE:STO6      UNIT 1005   STATUS:OLD                 
 FORMAT:FORMATTED              ACCESS:SEQUENTIAL          
 ACTION:READ                


 OPENED csub_sub03a.ic
 FILE TYPE:IC6       UNIT 1006   STATUS:OLD                 
 FORMAT:FORMATTED              ACCESS:SEQUENTIAL          
 ACTION:READ                


 OPENED csub_sub03a.oc
 FILE TYPE:OC6       UNIT 1007   STATUS:OLD                 
 FORMAT:FORMATTED              ACCESS:SEQUENTIAL          
 ACTION:READ                


 OPENED csub_sub03a.wel
 FILE TYPE:WEL6      UNIT 1008   STATUS:OLD                 
 FORMAT:FORMATTED              ACCESS:SEQUENTIAL          
 ACTION:READ                

 # File generated by Flopy version 3.5.0.dev0 on 10/30/2023 at 09:02:45.

 OPENED csub_sub03a.rcha
 FILE TYPE:RCH6      UNIT 1010   STATUS:OLD                 
 FORMAT:FORMATTED              ACCESS:SEQUENTIAL          
 ACTION:READ                

 # File generated by Flopy version 3.5.0.dev0 on 10/30/2023 at 09:02:45.

 OPENED csub_sub03a.chd
 FILE TYPE:CHD6      UNIT 1011   STATUS:OLD                 
 FORMAT:FORMATTED              ACCESS:SEQUENTIAL          
 ACTION:READ                

 # File generated by Flopy version 3.5.0.dev0 on 10/30/2023 at 09:02:45.

 OPENED csub_sub03a.csub
 FILE TYPE:CSUB6     UNIT 1012   STATUS:OLD                 
 FORMAT:FORMATTED              ACCESS:SEQUENTIAL          
 ACTION:READ                


 READING SIMULATION OPTIONS
    MAXIMUM NUMBER OF ERRORS THAT WILL BE STORED IS 1000
 END OF SIMULATION OPTIONS

 READING SIMULATION TIMING

 OPENED csub_sub03a.tdis
 FILE TYPE:TDIS   UNIT 1013   STATUS:OLD                 
 FORMAT:FORMATTED              ACCESS:SEQUENTIAL          
 ACTION:READ                


 TDIS -- TEMPORAL DISCRETIZATION PACKAGE,
 VERSION 1 : 11/13/2014 - INPUT READ FROM UNIT 1013
 # File generated by Flopy version 3.5.0.dev0 on 10/30/2023 at 09:02:45.
 PROCESSING TDIS OPTIONS
    SIMULATION TIME UNIT IS DAYS
 END OF TDIS OPTIONS
 PROCESSING TDIS DIMENSIONS
   31 STRESS PERIOD(S) IN SIMULATION
 END OF TDIS DIMENSIONS
 PROCESSING TDIS PERIODDATA


 STRESS PERIOD     LENGTH       TIME STEPS     MULTIPLIER FOR DELT
 ----------------------------------------------------------------------------
        1         1.000000          1                    1.000
        2         365.2500          6                    1.300
        3         365.2500          6                    1.300
        4         365.2500          6                    1.300
        5         365.2500          6                    1.300
        6         365.2500          6                    1.300
        7         365.2500          6                    1.300
        8         365.2500          6                    1.300
        9         365.2500          6                    1.300
       10         365.2500          6                    1.300
       11         365.2500          6                    1.300
       12         365.2500          6                    1.300
       13         365.2500          6                    1.300
       14         365.2500          6                    1.300
       15         365.2500          6                    1.300
       16         365.2500          6                    1.300
       17         365.2500          6                    1.300
       18         365.2500          6                    1.300
       19         365.2500          6                    1.300
       20         365.2500          6                    1.300
       21         365.2500          6                    1.300
       22         365.2500          6                    1.300
       23         365.2500          6                    1.300
       24         365.2500          6                    1.300
       25         365.2500          6                    1.300
       26         365.2500          6                    1.300
       27         365.2500          6                    1.300
       28         365.2500          6                    1.300
       29         365.2500          6                    1.300
       30         365.2500          6                    1.300
       31         365.2500          6                    1.300
 END OF TDIS PERIODDATA
 END OF SIMULATION TIMING

 READING SIMULATION MODELS
    GWF6 model 1 will be created
 END OF SIMULATION MODELS

 READING SIMULATION EXCHANGES
 END OF SIMULATION EXCHANGES

 READING SOLUTIONGROUP

 Creating solution: SLN_1           

 OPENED csub_sub03a.ims
 FILE TYPE:IMS   UNIT 1015   STATUS:OLD                 
 FORMAT:FORMATTED              ACCESS:SEQUENTIAL          
 ACTION:READ                

 END OF SOLUTIONGROUP

PROCESSING MODEL CONNECTIONS

 IMS -- ITERATIVE MODEL SOLUTION PACKAGE, VERSION 6, 4/28/2017
         INPUT READ FROM UNIT 1015
 # File generated by Flopy version 3.5.0.dev0 on 10/30/2023 at 09:02:45.

 PROCESSING IMS OPTIONS
 END OF IMS OPTIONS

 PROCESSING IMS NONLINEAR
 END OF IMS NONLINEAR DATA
 ***UNDER-RELAXATION WILL NOT BE USED***


 PROCESSING LINEAR DATA
 END OF LINEAR DATA
 ***IMS LINEAR SOLVER WILL BE USED***

 IMSLINEAR -- UNSTRUCTURED LINEAR SOLUTION PACKAGE, VERSION 8, 04/28/2017
 A symmetric matrix will be solved

 OUTER ITERATION CONVERGENCE CRITERION    (DVCLOSE) =    0.100000E-08
 MAXIMUM NUMBER OF OUTER ITERATIONS        (MXITER) = 500
 SOLVER PRINTOUT INDEX                     (IPRIMS) = 1
 NONLINEAR ITERATION METHOD            (NONLINMETH) = 0
 LINEAR SOLUTION METHOD                   (LINMETH) = 1

       SOLUTION BY THE        CONJUGATE-GRADIENT       METHOD
 ------------------------------------------------------------------
 MAXIMUM OF 500 CALLS OF SOLUTION ROUTINE
 MAXIMUM OF 300 INTERNAL ITERATIONS PER CALL TO SOLUTION ROUTINE
 LINEAR ACCELERATION METHOD            = CG        
 MATRIX PRECONDITIONING TYPE           = MOD. INCOMPLETE LU  
 MATRIX SCALING APPROACH               = NO SCALING          
 MATRIX REORDERING APPROACH            = ORIGINAL ORDERING        
 NUMBER OF ORTHOGONALIZATIONS          = 0
 HEAD CHANGE CRITERION FOR CLOSURE     =    0.10000E-08
 RESIDUAL CHANGE CRITERION FOR CLOSURE =    0.10000E-05
 RESIDUAL CONVERGENCE OPTION           = 0
 RESIDUAL CONVERGENCE NORM             = INFINITY NORM   
 RELAXATION FACTOR                     =    0.10000E+01




    Solving:  Stress period:     1    Time step:     1

1
                            STRESS PERIOD NO. 1, LENGTH =   1.000000    
                            -----------------------------------------------
                            NUMBER OF TIME STEPS = 1
                            MULTIPLIER FOR DELT =     1.000
                            INITIAL TIME STEP SIZE =   1.000000    

 SLN_1 OUTER ITERATION SUMMARY
 ----------------------------------------------------------------------------------------------------------
                                OUTER      INNER                    STEP   MAXIMUM CHANGE MODEL-(CELLID) OR
 OUTER ITERATION STEP       ITERATION  ITERATION  MAXIMUM CHANGE SUCCESS             MODEL-PACKAGE-(NUMBER)
 ----------------------------------------------------------------------------------------------------------
 Model                              1         37       23.347236                              1_GWF-(1,1,1)
 Model                              2          1  1.85327309E-10       *                      1_GWF-(2,3,8)
 ----------------------------------------------------------------------------------------------------------


 2 CALLS TO NUMERICAL SOLUTION IN TIME STEP 1 STRESS PERIOD 1
 38 TOTAL ITERATIONS

    Solving:  Stress period:     2    Time step:     1

1
                            STRESS PERIOD NO. 2, LENGTH =   365.2500    
                            -----------------------------------------------
                            NUMBER OF TIME STEPS = 6
                            MULTIPLIER FOR DELT =     1.300
                            INITIAL TIME STEP SIZE =   28.63352    

 SLN_1 OUTER ITERATION SUMMARY
 ----------------------------------------------------------------------------------------------------------
                                OUTER      INNER                    STEP   MAXIMUM CHANGE MODEL-(CELLID) OR
 OUTER ITERATION STEP       ITERATION  ITERATION  MAXIMUM CHANGE SUCCESS             MODEL-PACKAGE-(NUMBER)
 ----------------------------------------------------------------------------------------------------------
 Model                              1         24      -14.908780                              1_GWF-(3,3,6)
 Model                              2          1  3.28045147E-10       *                     1_GWF-(2,10,6)
 ----------------------------------------------------------------------------------------------------------


 2 CALLS TO NUMERICAL SOLUTION IN TIME STEP 1 STRESS PERIOD 2
 25 TOTAL ITERATIONS

    Solving:  Stress period:     2    Time step:     2


 SLN_1 OUTER ITERATION SUMMARY
 ----------------------------------------------------------------------------------------------------------
                                OUTER      INNER                    STEP   MAXIMUM CHANGE MODEL-(CELLID) OR
 OUTER ITERATION STEP       ITERATION  ITERATION  MAXIMUM CHANGE SUCCESS             MODEL-PACKAGE-(NUMBER)
 ----------------------------------------------------------------------------------------------------------
 Model                              1         25      -8.7562880                             1_GWF-(3,1,10)
 Model                              2         23       1.7046169                              1_GWF-(3,3,6)
 Model                              3          1 -2.00621741E-10       *                     1_GWF-(3,1,10)
 ----------------------------------------------------------------------------------------------------------


 3 CALLS TO NUMERICAL SOLUTION IN TIME STEP 2 STRESS PERIOD 2
 49 TOTAL ITERATIONS

    Solving:  Stress period:     2    Time step:     3


 SLN_1 OUTER ITERATION SUMMARY
 ----------------------------------------------------------------------------------------------------------
                                OUTER      INNER                    STEP   MAXIMUM CHANGE MODEL-(CELLID) OR
 OUTER ITERATION STEP       ITERATION  ITERATION  MAXIMUM CHANGE SUCCESS             MODEL-PACKAGE-(NUMBER)
 ----------------------------------------------------------------------------------------------------------
 Model                              1         26      -7.3644772                              1_GWF-(3,1,1)
 Model                              2         24       3.7344933                              1_GWF-(3,3,6)
 Model                              3         23       1.3269491                             1_GWF-(3,5,10)
 Model                              4         22      0.22866913                              1_GWF-(3,4,4)
 Model                              5          1  1.79380955E-10       *                      1_GWF-(2,8,2)
 ----------------------------------------------------------------------------------------------------------


 5 CALLS TO NUMERICAL SOLUTION IN TIME STEP 3 STRESS PERIOD 2
 96 TOTAL ITERATIONS

    Solving:  Stress period:     2    Time step:     4


 SLN_1 OUTER ITERATION SUMMARY
 ----------------------------------------------------------------------------------------------------------
                                OUTER      INNER                    STEP   MAXIMUM CHANGE MODEL-(CELLID) OR
 OUTER ITERATION STEP       ITERATION  ITERATION  MAXIMUM CHANGE SUCCESS             MODEL-PACKAGE-(NUMBER)
 ----------------------------------------------------------------------------------------------------------
 Model                              1         26      -4.6111552                             1_GWF-(3,10,1)
 Model                              2         25       2.4220311                              1_GWF-(3,3,9)
 Model                              3         22      0.34016768                              1_GWF-(3,5,1)
 Model                              4         19  3.29840198E-02                              1_GWF-(3,4,1)
 Model                              5          2  1.32229427E-09                              1_GWF-(2,4,2)
 Model                              6          1 -1.87965199E-11       *                      1_GWF-(2,1,2)
 ----------------------------------------------------------------------------------------------------------


 6 CALLS TO NUMERICAL SOLUTION IN TIME STEP 4 STRESS PERIOD 2
 95 TOTAL ITERATIONS

    Solving:  Stress period:     2    Time step:     5


 SLN_1 OUTER ITERATION SUMMARY
 ----------------------------------------------------------------------------------------------------------
                                OUTER      INNER                    STEP   MAXIMUM CHANGE MODEL-(CELLID) OR
 OUTER ITERATION STEP       ITERATION  ITERATION  MAXIMUM CHANGE SUCCESS             MODEL-PACKAGE-(NUMBER)
 ----------------------------------------------------------------------------------------------------------
 Model                              1         26      -4.5842626                             1_GWF-(3,3,10)
 Model                              2         24       3.3719817                             1_GWF-(3,2,10)
 Model                              3         23      0.56604208                             1_GWF-(3,8,10)
 Model                              4         21  4.32066738E-02                              1_GWF-(3,6,2)
 Model                              5          1 -8.04281086E-11       *                      1_GWF-(2,6,2)
 ----------------------------------------------------------------------------------------------------------


 5 CALLS TO NUMERICAL SOLUTION IN TIME STEP 5 STRESS PERIOD 2
 95 TOTAL ITERATIONS

    Solving:  Stress period:     2    Time step:     6


 SLN_1 OUTER ITERATION SUMMARY
 ----------------------------------------------------------------------------------------------------------
                                OUTER      INNER                    STEP   MAXIMUM CHANGE MODEL-(CELLID) OR
 OUTER ITERATION STEP       ITERATION  ITERATION  MAXIMUM CHANGE SUCCESS             MODEL-PACKAGE-(NUMBER)
 ----------------------------------------------------------------------------------------------------------
 Model                              1         26      -3.1357146                             1_GWF-(3,4,10)
 Model                              2         25       1.7600921                              1_GWF-(3,2,5)
 Model                              3         22      0.27644707                             1_GWF-(3,10,1)
 Model                              4         21  4.57737685E-02                              1_GWF-(3,8,4)
 Model                              5          1 -2.75511614E-10       *                      1_GWF-(2,2,1)
 ----------------------------------------------------------------------------------------------------------


 5 CALLS TO NUMERICAL SOLUTION IN TIME STEP 6 STRESS PERIOD 2
 95 TOTAL ITERATIONS

    Solving:  Stress period:     3    Time step:     1

1
                            STRESS PERIOD NO. 3, LENGTH =   365.2500    
                            -----------------------------------------------
                            NUMBER OF TIME STEPS = 6
                            MULTIPLIER FOR DELT =     1.300
                            INITIAL TIME STEP SIZE =   28.63352    

 SLN_1 OUTER ITERATION SUMMARY
 ----------------------------------------------------------------------------------------------------------
                                OUTER      INNER                    STEP   MAXIMUM CHANGE MODEL-(CELLID) OR
 OUTER ITERATION STEP       ITERATION  ITERATION  MAXIMUM CHANGE SUCCESS             MODEL-PACKAGE-(NUMBER)
 ----------------------------------------------------------------------------------------------------------
 Model                              1         22      -1.1619016                              1_GWF-(3,3,4)
 Model                              2         21      0.84397110                              1_GWF-(3,3,3)
 Model                              3         18  3.22281115E-02                              1_GWF-(3,8,1)
 Model                              4         15  3.18480990E-03                              1_GWF-(3,8,4)
 Model                              5          1 -2.14516405E-10       *                      1_GWF-(2,8,2)
 ----------------------------------------------------------------------------------------------------------


 5 CALLS TO NUMERICAL SOLUTION IN TIME STEP 1 STRESS PERIOD 3
 77 TOTAL ITERATIONS

    Solving:  Stress period:     3    Time step:     2


 SLN_1 OUTER ITERATION SUMMARY
 ----------------------------------------------------------------------------------------------------------
                                OUTER      INNER                    STEP   MAXIMUM CHANGE MODEL-(CELLID) OR
 OUTER ITERATION STEP       ITERATION  ITERATION  MAXIMUM CHANGE SUCCESS             MODEL-PACKAGE-(NUMBER)
 ----------------------------------------------------------------------------------------------------------
 Model                              1         23      -3.5781531                             1_GWF-(3,1,10)
 Model                              2         22       3.1265799                             1_GWF-(3,1,10)
 Model                              3         20  7.49094098E-02                              1_GWF-(3,9,1)
 Model                              4          1  3.77415876E-11       *                      1_GWF-(2,9,2)
 ----------------------------------------------------------------------------------------------------------


 4 CALLS TO NUMERICAL SOLUTION IN TIME STEP 2 STRESS PERIOD 3
 66 TOTAL ITERATIONS

    Solving:  Stress period:     3    Time step:     3


 SLN_1 OUTER ITERATION SUMMARY
 ----------------------------------------------------------------------------------------------------------
                                OUTER      INNER                    STEP   MAXIMUM CHANGE MODEL-(CELLID) OR
 OUTER ITERATION STEP       ITERATION  ITERATION  MAXIMUM CHANGE SUCCESS             MODEL-PACKAGE-(NUMBER)
 ----------------------------------------------------------------------------------------------------------
 Model                              1         24      -2.7463872                             1_GWF-(3,1,10)
 Model                              2         22       2.1656651                             1_GWF-(3,1,10)
 Model                              3         19  5.42050482E-02                             1_GWF-(3,10,1)
 Model                              4         17  8.33664559E-03                              1_GWF-(3,9,1)
 Model                              5          1  5.82770721E-10       *                      1_GWF-(2,9,2)
 ----------------------------------------------------------------------------------------------------------


 5 CALLS TO NUMERICAL SOLUTION IN TIME STEP 3 STRESS PERIOD 3
 83 TOTAL ITERATIONS

    Solving:  Stress period:     3    Time step:     4


 SLN_1 OUTER ITERATION SUMMARY
 ----------------------------------------------------------------------------------------------------------
                                OUTER      INNER                    STEP   MAXIMUM CHANGE MODEL-(CELLID) OR
 OUTER ITERATION STEP       ITERATION  ITERATION  MAXIMUM CHANGE SUCCESS             MODEL-PACKAGE-(NUMBER)
 ----------------------------------------------------------------------------------------------------------
 Model                              1         25      -3.3944253                             1_GWF-(3,1,10)
 Model                              2         23       2.6603496                             1_GWF-(3,1,10)
 Model                              3         16  3.18736461E-03                             1_GWF-(3,10,1)
 Model                              4         13  2.38742284E-04                             1_GWF-(3,10,3)
 Model                              5          1  6.93885394E-10       *                      1_GWF-(2,9,2)
 ----------------------------------------------------------------------------------------------------------


 5 CALLS TO NUMERICAL SOLUTION IN TIME STEP 4 STRESS PERIOD 3
 78 TOTAL ITERATIONS

    Solving:  Stress period:     3    Time step:     5


 SLN_1 OUTER ITERATION SUMMARY
 ----------------------------------------------------------------------------------------------------------
                                OUTER      INNER                    STEP   MAXIMUM CHANGE MODEL-(CELLID) OR
 OUTER ITERATION STEP       ITERATION  ITERATION  MAXIMUM CHANGE SUCCESS             MODEL-PACKAGE-(NUMBER)
 ----------------------------------------------------------------------------------------------------------
 Model                              1         25      -3.9304970                             1_GWF-(3,1,10)
 Model                              2         24       3.0178575                             1_GWF-(3,1,10)
 Model                              3          1  1.91761274E-10       *                      1_GWF-(2,2,2)
 ----------------------------------------------------------------------------------------------------------


 3 CALLS TO NUMERICAL SOLUTION IN TIME STEP 5 STRESS PERIOD 3
 50 TOTAL ITERATIONS

    Solving:  Stress period:     3    Time step:     6


 SLN_1 OUTER ITERATION SUMMARY
 ----------------------------------------------------------------------------------------------------------
                                OUTER      INNER                    STEP   MAXIMUM CHANGE MODEL-(CELLID) OR
 OUTER ITERATION STEP       ITERATION  ITERATION  MAXIMUM CHANGE SUCCESS             MODEL-PACKAGE-(NUMBER)
 ----------------------------------------------------------------------------------------------------------
 Model                              1         25      -3.1083243                             1_GWF-(3,1,10)
 Model                              2         25       1.9907645                             1_GWF-(3,1,10)
 Model                              3          1  3.90714128E-11       *                      1_GWF-(2,5,2)
 ----------------------------------------------------------------------------------------------------------


 3 CALLS TO NUMERICAL SOLUTION IN TIME STEP 6 STRESS PERIOD 3
 51 TOTAL ITERATIONS

    Solving:  Stress period:     4    Time step:     1

1
                            STRESS PERIOD NO. 4, LENGTH =   365.2500    
                            -----------------------------------------------
                            NUMBER OF TIME STEPS = 6
                            MULTIPLIER FOR DELT =     1.300
                            INITIAL TIME STEP SIZE =   28.63352    

 SLN_1 OUTER ITERATION SUMMARY
 ----------------------------------------------------------------------------------------------------------
                                OUTER      INNER                    STEP   MAXIMUM CHANGE MODEL-(CELLID) OR
 OUTER ITERATION STEP       ITERATION  ITERATION  MAXIMUM CHANGE SUCCESS             MODEL-PACKAGE-(NUMBER)
 ----------------------------------------------------------------------------------------------------------
 Model                              1         21     -0.88041739                              1_GWF-(3,3,9)
 Model                              2         21      0.60842876                              1_GWF-(3,3,9)
 Model                              3          1  2.35237385E-11       *                      1_GWF-(2,2,7)
 ----------------------------------------------------------------------------------------------------------


 3 CALLS TO NUMERICAL SOLUTION IN TIME STEP 1 STRESS PERIOD 4
 43 TOTAL ITERATIONS

    Solving:  Stress period:     4    Time step:     2


 SLN_1 OUTER ITERATION SUMMARY
 ----------------------------------------------------------------------------------------------------------
                                OUTER      INNER                    STEP   MAXIMUM CHANGE MODEL-(CELLID) OR
 OUTER ITERATION STEP       ITERATION  ITERATION  MAXIMUM CHANGE SUCCESS             MODEL-PACKAGE-(NUMBER)
 ----------------------------------------------------------------------------------------------------------
 Model                              1         21     -0.94581761                              1_GWF-(3,3,1)
 Model                              2         21      0.61738599                              1_GWF-(3,3,1)
 Model                              3          1 -6.69719835E-11       *                      1_GWF-(2,3,2)
 ----------------------------------------------------------------------------------------------------------


 3 CALLS TO NUMERICAL SOLUTION IN TIME STEP 2 STRESS PERIOD 4
 43 TOTAL ITERATIONS

    Solving:  Stress period:     4    Time step:     3


 SLN_1 OUTER ITERATION SUMMARY
 ----------------------------------------------------------------------------------------------------------
                                OUTER      INNER                    STEP   MAXIMUM CHANGE MODEL-(CELLID) OR
 OUTER ITERATION STEP       ITERATION  ITERATION  MAXIMUM CHANGE SUCCESS             MODEL-PACKAGE-(NUMBER)
 ----------------------------------------------------------------------------------------------------------
 Model                              1         22      -1.6694303                             1_GWF-(3,1,10)
 Model                              2         22       1.1924032                             1_GWF-(3,1,10)
 Model                              3          1  9.17208531E-11       *                      1_GWF-(2,2,1)
 ----------------------------------------------------------------------------------------------------------


 3 CALLS TO NUMERICAL SOLUTION IN TIME STEP 3 STRESS PERIOD 4
 45 TOTAL ITERATIONS

    Solving:  Stress period:     4    Time step:     4


 SLN_1 OUTER ITERATION SUMMARY
 ----------------------------------------------------------------------------------------------------------
                                OUTER      INNER                    STEP   MAXIMUM CHANGE MODEL-(CELLID) OR
 OUTER ITERATION STEP       ITERATION  ITERATION  MAXIMUM CHANGE SUCCESS             MODEL-PACKAGE-(NUMBER)
 ----------------------------------------------------------------------------------------------------------
 Model                              1         25      -2.9781281                             1_GWF-(3,1,10)
 Model                              2         23       2.3782335                             1_GWF-(3,1,10)
 Model                              3          1 -8.92031116E-10       *                      1_GWF-(2,2,2)
 ----------------------------------------------------------------------------------------------------------


 3 CALLS TO NUMERICAL SOLUTION IN TIME STEP 4 STRESS PERIOD 4
 49 TOTAL ITERATIONS

    Solving:  Stress period:     4    Time step:     5


 SLN_1 OUTER ITERATION SUMMARY
 ----------------------------------------------------------------------------------------------------------
                                OUTER      INNER                    STEP   MAXIMUM CHANGE MODEL-(CELLID) OR
 OUTER ITERATION STEP       ITERATION  ITERATION  MAXIMUM CHANGE SUCCESS             MODEL-PACKAGE-(NUMBER)
 ----------------------------------------------------------------------------------------------------------
 Model                              1         25      -3.2170299                             1_GWF-(3,1,10)
 Model                              2         25       2.4681385                             1_GWF-(3,1,10)
 Model                              3          1  1.77420023E-11       *                      1_GWF-(2,4,2)
 ----------------------------------------------------------------------------------------------------------


 3 CALLS TO NUMERICAL SOLUTION IN TIME STEP 5 STRESS PERIOD 4
 51 TOTAL ITERATIONS

    Solving:  Stress period:     4    Time step:     6


 SLN_1 OUTER ITERATION SUMMARY
 ----------------------------------------------------------------------------------------------------------
                                OUTER      INNER                    STEP   MAXIMUM CHANGE MODEL-(CELLID) OR
 OUTER ITERATION STEP       ITERATION  ITERATION  MAXIMUM CHANGE SUCCESS             MODEL-PACKAGE-(NUMBER)
 ----------------------------------------------------------------------------------------------------------
 Model                              1         25      -1.8996021                              1_GWF-(3,3,1)
 Model                              2         24       1.0544293                              1_GWF-(3,3,1)
 Model                              3          1  5.13722398E-11       *                      1_GWF-(2,3,5)
 ----------------------------------------------------------------------------------------------------------


 3 CALLS TO NUMERICAL SOLUTION IN TIME STEP 6 STRESS PERIOD 4
 50 TOTAL ITERATIONS

    Solving:  Stress period:     5    Time step:     1

1
                            STRESS PERIOD NO. 5, LENGTH =   365.2500    
                            -----------------------------------------------
                            NUMBER OF TIME STEPS = 6
                            MULTIPLIER FOR DELT =     1.300
                            INITIAL TIME STEP SIZE =   28.63352    

 SLN_1 OUTER ITERATION SUMMARY
 ----------------------------------------------------------------------------------------------------------
                                OUTER      INNER                    STEP   MAXIMUM CHANGE MODEL-(CELLID) OR
 OUTER ITERATION STEP       ITERATION  ITERATION  MAXIMUM CHANGE SUCCESS             MODEL-PACKAGE-(NUMBER)
 ----------------------------------------------------------------------------------------------------------
 Model                              1         23      -12.654174                              1_GWF-(1,1,1)
 Model                              2         21      0.60292884                             1_GWF-(3,1,10)
 Model                              3          1  3.48596707E-11       *                      1_GWF-(2,2,5)
 ----------------------------------------------------------------------------------------------------------


 3 CALLS TO NUMERICAL SOLUTION IN TIME STEP 1 STRESS PERIOD 5
 45 TOTAL ITERATIONS

    Solving:  Stress period:     5    Time step:     2


 SLN_1 OUTER ITERATION SUMMARY
 ----------------------------------------------------------------------------------------------------------
                                OUTER      INNER                    STEP   MAXIMUM CHANGE MODEL-(CELLID) OR
 OUTER ITERATION STEP       ITERATION  ITERATION  MAXIMUM CHANGE SUCCESS             MODEL-PACKAGE-(NUMBER)
 ----------------------------------------------------------------------------------------------------------
 Model                              1         23      -5.3117204                              1_GWF-(1,1,1)
 Model                              2         21       2.2132954                              1_GWF-(2,3,6)
 Model                              3          1  2.13746354E-10       *                      1_GWF-(2,2,2)
 ----------------------------------------------------------------------------------------------------------


 3 CALLS TO NUMERICAL SOLUTION IN TIME STEP 2 STRESS PERIOD 5
 45 TOTAL ITERATIONS

    Solving:  Stress period:     5    Time step:     3


 SLN_1 OUTER ITERATION SUMMARY
 ----------------------------------------------------------------------------------------------------------
                                OUTER      INNER                    STEP   MAXIMUM CHANGE MODEL-(CELLID) OR
 OUTER ITERATION STEP       ITERATION  ITERATION  MAXIMUM CHANGE SUCCESS             MODEL-PACKAGE-(NUMBER)
 ----------------------------------------------------------------------------------------------------------
 Model                              1         24      -2.5113809                              1_GWF-(2,3,5)
 Model                              2         22       2.4424599                              1_GWF-(2,4,6)
 Model                              3         19      0.14769630                             1_GWF-(2,3,10)
 Model                              4         18  8.10408430E-03                              1_GWF-(2,1,4)
 Model                              5         16  1.49782346E-03                              1_GWF-(2,1,5)
 Model                              6          1  1.31850086E-10       *                      1_GWF-(2,8,2)
 ----------------------------------------------------------------------------------------------------------


 6 CALLS TO NUMERICAL SOLUTION IN TIME STEP 3 STRESS PERIOD 5
 100 TOTAL ITERATIONS

    Solving:  Stress period:     5    Time step:     4


 SLN_1 OUTER ITERATION SUMMARY
 ----------------------------------------------------------------------------------------------------------
                                OUTER      INNER                    STEP   MAXIMUM CHANGE MODEL-(CELLID) OR
 OUTER ITERATION STEP       ITERATION  ITERATION  MAXIMUM CHANGE SUCCESS             MODEL-PACKAGE-(NUMBER)
 ----------------------------------------------------------------------------------------------------------
 Model                              1         25      -5.1534802                              1_GWF-(2,3,6)
 Model                              2         22       5.0037325                              1_GWF-(2,3,6)
 Model                              3         20      0.47953145                              1_GWF-(2,6,2)
 Model                              4         19      0.13589189                              1_GWF-(2,4,1)
 Model                              5          1 -4.34807745E-11       *                      1_GWF-(2,9,9)
 ----------------------------------------------------------------------------------------------------------


 5 CALLS TO NUMERICAL SOLUTION IN TIME STEP 4 STRESS PERIOD 5
 87 TOTAL ITERATIONS

    Solving:  Stress period:     5    Time step:     5


 SLN_1 OUTER ITERATION SUMMARY
 ----------------------------------------------------------------------------------------------------------
                                OUTER      INNER                    STEP   MAXIMUM CHANGE MODEL-(CELLID) OR
 OUTER ITERATION STEP       ITERATION  ITERATION  MAXIMUM CHANGE SUCCESS             MODEL-PACKAGE-(NUMBER)
 ----------------------------------------------------------------------------------------------------------
 Model                              1         25      -6.0317371                              1_GWF-(2,3,6)
 Model                              2         22       5.8291096                              1_GWF-(2,3,6)
 Model                              3         20      0.35333561                              1_GWF-(2,7,1)
 Model                              4         19  3.36318938E-02                              1_GWF-(2,4,1)
 Model                              5          1 -3.94200228E-11       *                      1_GWF-(2,9,9)
 ----------------------------------------------------------------------------------------------------------


 5 CALLS TO NUMERICAL SOLUTION IN TIME STEP 5 STRESS PERIOD 5
 87 TOTAL ITERATIONS

    Solving:  Stress period:     5    Time step:     6


 SLN_1 OUTER ITERATION SUMMARY
 ----------------------------------------------------------------------------------------------------------
                                OUTER      INNER                    STEP   MAXIMUM CHANGE MODEL-(CELLID) OR
 OUTER ITERATION STEP       ITERATION  ITERATION  MAXIMUM CHANGE SUCCESS             MODEL-PACKAGE-(NUMBER)
 ----------------------------------------------------------------------------------------------------------
 Model                              1         26      -6.5242317                              1_GWF-(2,3,6)
 Model                              2         22       6.2530679                              1_GWF-(2,3,6)
 Model                              3         21      0.71608724                             1_GWF-(2,10,5)
 Model                              4         19      0.15601508                             1_GWF-(2,7,10)
 Model                              5         18  2.92810251E-02                              1_GWF-(2,5,1)
 Model                              6          1 -8.36708480E-11       *                      1_GWF-(2,8,2)
 ----------------------------------------------------------------------------------------------------------


 6 CALLS TO NUMERICAL SOLUTION IN TIME STEP 6 STRESS PERIOD 5
 107 TOTAL ITERATIONS

    Solving:  Stress period:     6    Time step:     1

1
                            STRESS PERIOD NO. 6, LENGTH =   365.2500    
                            -----------------------------------------------
                            NUMBER OF TIME STEPS = 6
                            MULTIPLIER FOR DELT =     1.300
                            INITIAL TIME STEP SIZE =   28.63352    

 SLN_1 OUTER ITERATION SUMMARY
 ----------------------------------------------------------------------------------------------------------
                                OUTER      INNER                    STEP   MAXIMUM CHANGE MODEL-(CELLID) OR
 OUTER ITERATION STEP       ITERATION  ITERATION  MAXIMUM CHANGE SUCCESS             MODEL-PACKAGE-(NUMBER)
 ----------------------------------------------------------------------------------------------------------
 Model                              1         23      -3.8235600                              1_GWF-(2,3,6)
 Model                              2         21       3.7500803                              1_GWF-(2,3,6)
 Model                              3         18      0.14508424                             1_GWF-(2,7,10)
 Model                              4         16  6.79723851E-02                             1_GWF-(2,6,10)
 Model                              5          1  1.23880461E-10       *                      1_GWF-(2,8,2)
 ----------------------------------------------------------------------------------------------------------


 5 CALLS TO NUMERICAL SOLUTION IN TIME STEP 1 STRESS PERIOD 6
 79 TOTAL ITERATIONS

    Solving:  Stress period:     6    Time step:     2


 SLN_1 OUTER ITERATION SUMMARY
 ----------------------------------------------------------------------------------------------------------
                                OUTER      INNER                    STEP   MAXIMUM CHANGE MODEL-(CELLID) OR
 OUTER ITERATION STEP       ITERATION  ITERATION  MAXIMUM CHANGE SUCCESS             MODEL-PACKAGE-(NUMBER)
 ----------------------------------------------------------------------------------------------------------
 Model                              1         22      -4.1382910                              1_GWF-(2,3,6)
 Model                              2         21       4.0420051                              1_GWF-(2,3,6)
 Model                              3         19      0.17226899                              1_GWF-(2,7,3)
 Model                              4         11  6.44586868E-04                              1_GWF-(2,7,8)
 Model                              5          1 -2.25822028E-10       *                      1_GWF-(2,7,7)
 ----------------------------------------------------------------------------------------------------------


 5 CALLS TO NUMERICAL SOLUTION IN TIME STEP 2 STRESS PERIOD 6
 74 TOTAL ITERATIONS

    Solving:  Stress period:     6    Time step:     3


 SLN_1 OUTER ITERATION SUMMARY
 ----------------------------------------------------------------------------------------------------------
                                OUTER      INNER                    STEP   MAXIMUM CHANGE MODEL-(CELLID) OR
 OUTER ITERATION STEP       ITERATION  ITERATION  MAXIMUM CHANGE SUCCESS             MODEL-PACKAGE-(NUMBER)
 ----------------------------------------------------------------------------------------------------------
 Model                              1         26      -5.2945802                              1_GWF-(2,3,6)
 Model                              2         21       5.1682025                              1_GWF-(2,3,6)
 Model                              3         19      0.56716097                             1_GWF-(2,10,5)
 Model                              4         18      0.10852467                              1_GWF-(2,7,1)
 Model                              5         17  4.89896294E-02                              1_GWF-(2,6,1)
 Model                              6          1 -1.12551746E-10       *                      1_GWF-(2,8,3)
 ----------------------------------------------------------------------------------------------------------


 6 CALLS TO NUMERICAL SOLUTION IN TIME STEP 3 STRESS PERIOD 6
 102 TOTAL ITERATIONS

    Solving:  Stress period:     6    Time step:     4


 SLN_1 OUTER ITERATION SUMMARY
 ----------------------------------------------------------------------------------------------------------
                                OUTER      INNER                    STEP   MAXIMUM CHANGE MODEL-(CELLID) OR
 OUTER ITERATION STEP       ITERATION  ITERATION  MAXIMUM CHANGE SUCCESS             MODEL-PACKAGE-(NUMBER)
 ----------------------------------------------------------------------------------------------------------
 Model                              1         24      -4.9415798                              1_GWF-(2,3,6)
 Model                              2         21       4.7754785                              1_GWF-(2,3,6)
 Model                              3         19      0.21524996                             1_GWF-(2,9,10)
 Model                              4         18  4.49306323E-02                             1_GWF-(2,7,10)
 Model                              5          1 -3.35198536E-11       *                      1_GWF-(2,8,9)
 ----------------------------------------------------------------------------------------------------------


 5 CALLS TO NUMERICAL SOLUTION IN TIME STEP 4 STRESS PERIOD 6
 83 TOTAL ITERATIONS

    Solving:  Stress period:     6    Time step:     5


 SLN_1 OUTER ITERATION SUMMARY
 ----------------------------------------------------------------------------------------------------------
                                OUTER      INNER                    STEP   MAXIMUM CHANGE MODEL-(CELLID) OR
 OUTER ITERATION STEP       ITERATION  ITERATION  MAXIMUM CHANGE SUCCESS             MODEL-PACKAGE-(NUMBER)
 ----------------------------------------------------------------------------------------------------------
 Model                              1         25      -5.7043070                              1_GWF-(2,3,6)
 Model                              2         21       5.4855590                              1_GWF-(2,3,6)
 Model                              3         20      0.32747654                              1_GWF-(2,8,4)
 Model                              4         17  2.42288650E-02                              1_GWF-(2,7,1)
 Model                              5          1 -1.37455380E-10       *                      1_GWF-(2,9,3)
 ----------------------------------------------------------------------------------------------------------


 5 CALLS TO NUMERICAL SOLUTION IN TIME STEP 5 STRESS PERIOD 6
 84 TOTAL ITERATIONS

    Solving:  Stress period:     6    Time step:     6


 SLN_1 OUTER ITERATION SUMMARY
 ----------------------------------------------------------------------------------------------------------
                                OUTER      INNER                    STEP   MAXIMUM CHANGE MODEL-(CELLID) OR
 OUTER ITERATION STEP       ITERATION  ITERATION  MAXIMUM CHANGE SUCCESS             MODEL-PACKAGE-(NUMBER)
 ----------------------------------------------------------------------------------------------------------
 Model                              1         25      -6.4313837                              1_GWF-(2,3,6)
 Model                              2         22       6.1429129                              1_GWF-(2,3,6)
 Model                              3         19  5.44257486E-02                              1_GWF-(2,9,1)
 Model                              4         17  1.76755625E-02                              1_GWF-(2,8,1)
 Model                              5          1 -1.00661701E-10       *                      1_GWF-(2,9,3)
 ----------------------------------------------------------------------------------------------------------


 5 CALLS TO NUMERICAL SOLUTION IN TIME STEP 6 STRESS PERIOD 6
 84 TOTAL ITERATIONS

    Solving:  Stress period:     7    Time step:     1

1
                            STRESS PERIOD NO. 7, LENGTH =   365.2500    
                            -----------------------------------------------
                            NUMBER OF TIME STEPS = 6
                            MULTIPLIER FOR DELT =     1.300
                            INITIAL TIME STEP SIZE =   28.63352    

 SLN_1 OUTER ITERATION SUMMARY
 ----------------------------------------------------------------------------------------------------------
                                OUTER      INNER                    STEP   MAXIMUM CHANGE MODEL-(CELLID) OR
 OUTER ITERATION STEP       ITERATION  ITERATION  MAXIMUM CHANGE SUCCESS             MODEL-PACKAGE-(NUMBER)
 ----------------------------------------------------------------------------------------------------------
 Model                              1         22      -3.9306111                              1_GWF-(2,3,6)
 Model                              2         20       3.8526320                              1_GWF-(2,3,6)
 Model                              3         15  1.00932121E-02                              1_GWF-(2,8,1)
 Model                              4          1 -6.86677382E-11       *                      1_GWF-(2,9,2)
 ----------------------------------------------------------------------------------------------------------


 4 CALLS TO NUMERICAL SOLUTION IN TIME STEP 1 STRESS PERIOD 7
 58 TOTAL ITERATIONS

    Solving:  Stress period:     7    Time step:     2


 SLN_1 OUTER ITERATION SUMMARY
 ----------------------------------------------------------------------------------------------------------
                                OUTER      INNER                    STEP   MAXIMUM CHANGE MODEL-(CELLID) OR
 OUTER ITERATION STEP       ITERATION  ITERATION  MAXIMUM CHANGE SUCCESS             MODEL-PACKAGE-(NUMBER)
 ----------------------------------------------------------------------------------------------------------
 Model                              1         23      -5.0309873                              1_GWF-(2,3,6)
 Model                              2         21       4.9291515                              1_GWF-(2,3,6)
 Model                              3         17  6.56724248E-02                            1_GWF-(2,10,10)
 Model                              4         16  2.81064226E-02                             1_GWF-(2,9,10)
 Model                              5          1  7.54676321E-11       *                      1_GWF-(2,9,2)
 ----------------------------------------------------------------------------------------------------------


 5 CALLS TO NUMERICAL SOLUTION IN TIME STEP 2 STRESS PERIOD 7
 78 TOTAL ITERATIONS

    Solving:  Stress period:     7    Time step:     3


 SLN_1 OUTER ITERATION SUMMARY
 ----------------------------------------------------------------------------------------------------------
                                OUTER      INNER                    STEP   MAXIMUM CHANGE MODEL-(CELLID) OR
 OUTER ITERATION STEP       ITERATION  ITERATION  MAXIMUM CHANGE SUCCESS             MODEL-PACKAGE-(NUMBER)
 ----------------------------------------------------------------------------------------------------------
 Model                              1         23      -2.7400419                              1_GWF-(2,4,9)
 Model                              2         20       2.6557200                              1_GWF-(2,4,9)
 Model                              3         19      0.30124802                              1_GWF-(2,9,4)
 Model                              4         15  1.38884639E-02                              1_GWF-(2,9,1)
 Model                              5          1  8.65210126E-11       *                      1_GWF-(2,9,9)
 ----------------------------------------------------------------------------------------------------------


 5 CALLS TO NUMERICAL SOLUTION IN TIME STEP 3 STRESS PERIOD 7
 78 TOTAL ITERATIONS

    Solving:  Stress period:     7    Time step:     4


 SLN_1 OUTER ITERATION SUMMARY
 ----------------------------------------------------------------------------------------------------------
                                OUTER      INNER                    STEP   MAXIMUM CHANGE MODEL-(CELLID) OR
 OUTER ITERATION STEP       ITERATION  ITERATION  MAXIMUM CHANGE SUCCESS             MODEL-PACKAGE-(NUMBER)
 ----------------------------------------------------------------------------------------------------------
 Model                              1         25      -5.6347462                              1_GWF-(2,3,6)
 Model                              2         21       5.4605505                              1_GWF-(2,3,6)
 Model                              3         19      0.13616951                              1_GWF-(2,9,4)
 Model                              4         16  1.50364965E-02                             1_GWF-(2,10,9)
 Model                              5          1  7.22000237E-11       *                      1_GWF-(2,9,2)
 ----------------------------------------------------------------------------------------------------------


 5 CALLS TO NUMERICAL SOLUTION IN TIME STEP 4 STRESS PERIOD 7
 82 TOTAL ITERATIONS

    Solving:  Stress period:     7    Time step:     5


 SLN_1 OUTER ITERATION SUMMARY
 ----------------------------------------------------------------------------------------------------------
                                OUTER      INNER                    STEP   MAXIMUM CHANGE MODEL-(CELLID) OR
 OUTER ITERATION STEP       ITERATION  ITERATION  MAXIMUM CHANGE SUCCESS             MODEL-PACKAGE-(NUMBER)
 ----------------------------------------------------------------------------------------------------------
 Model                              1         24      -5.8171065                              1_GWF-(2,3,6)
 Model                              2         21       5.5889375                              1_GWF-(2,3,6)
 Model                              3          9  1.23798077E-04                             1_GWF-(2,10,5)
 Model                              4          1 -2.26827224E-10       *                      1_GWF-(1,8,5)
 ----------------------------------------------------------------------------------------------------------


 4 CALLS TO NUMERICAL SOLUTION IN TIME STEP 5 STRESS PERIOD 7
 55 TOTAL ITERATIONS

    Solving:  Stress period:     7    Time step:     6


 SLN_1 OUTER ITERATION SUMMARY
 ----------------------------------------------------------------------------------------------------------
                                OUTER      INNER                    STEP   MAXIMUM CHANGE MODEL-(CELLID) OR
 OUTER ITERATION STEP       ITERATION  ITERATION  MAXIMUM CHANGE SUCCESS             MODEL-PACKAGE-(NUMBER)
 ----------------------------------------------------------------------------------------------------------
 Model                              1         26      -8.3340296                              1_GWF-(2,3,6)
 Model                              2         22       8.0349010                              1_GWF-(2,3,6)
 Model                              3          1 -1.39495526E-10       *                      1_GWF-(2,2,1)
 ----------------------------------------------------------------------------------------------------------


 3 CALLS TO NUMERICAL SOLUTION IN TIME STEP 6 STRESS PERIOD 7
 49 TOTAL ITERATIONS

    Solving:  Stress period:     8    Time step:     1

1
                            STRESS PERIOD NO. 8, LENGTH =   365.2500    
                            -----------------------------------------------
                            NUMBER OF TIME STEPS = 6
                            MULTIPLIER FOR DELT =     1.300
                            INITIAL TIME STEP SIZE =   28.63352    

 SLN_1 OUTER ITERATION SUMMARY
 ----------------------------------------------------------------------------------------------------------
                                OUTER      INNER                    STEP   MAXIMUM CHANGE MODEL-(CELLID) OR
 OUTER ITERATION STEP       ITERATION  ITERATION  MAXIMUM CHANGE SUCCESS             MODEL-PACKAGE-(NUMBER)
 ----------------------------------------------------------------------------------------------------------
 Model                              1         22       12.332188                              1_GWF-(1,1,1)
 Model                              2         21      0.87478778                              1_GWF-(2,3,5)
 Model                              3         19      0.12007257                             1_GWF-(2,4,10)
 Model                              4         17  2.85145705E-02                              1_GWF-(2,7,1)
 Model                              5         16  8.81023119E-03                              1_GWF-(2,8,1)
 Model                              6          1  4.06208400E-10       *                      1_GWF-(2,2,2)
 ----------------------------------------------------------------------------------------------------------


 6 CALLS TO NUMERICAL SOLUTION IN TIME STEP 1 STRESS PERIOD 8
 96 TOTAL ITERATIONS

    Solving:  Stress period:     8    Time step:     2


 SLN_1 OUTER ITERATION SUMMARY
 ----------------------------------------------------------------------------------------------------------
                                OUTER      INNER                    STEP   MAXIMUM CHANGE MODEL-(CELLID) OR
 OUTER ITERATION STEP       ITERATION  ITERATION  MAXIMUM CHANGE SUCCESS             MODEL-PACKAGE-(NUMBER)
 ----------------------------------------------------------------------------------------------------------
 Model                              1         24       4.8847675                              1_GWF-(1,1,1)
 Model                              2         22       2.8716281                            1_GWF-(3,10,10)
 Model                              3         21      0.67393301                              1_GWF-(2,7,3)
 Model                              4         20      0.18337074                             1_GWF-(2,10,6)
 Model                              5          1 -3.52917695E-11       *                      1_GWF-(2,2,1)
 ----------------------------------------------------------------------------------------------------------


 5 CALLS TO NUMERICAL SOLUTION IN TIME STEP 2 STRESS PERIOD 8
 88 TOTAL ITERATIONS

    Solving:  Stress period:     8    Time step:     3


 SLN_1 OUTER ITERATION SUMMARY
 ----------------------------------------------------------------------------------------------------------
                                OUTER      INNER                    STEP   MAXIMUM CHANGE MODEL-(CELLID) OR
 OUTER ITERATION STEP       ITERATION  ITERATION  MAXIMUM CHANGE SUCCESS             MODEL-PACKAGE-(NUMBER)
 ----------------------------------------------------------------------------------------------------------
 Model                              1         26      -2.4144274                             1_GWF-(3,1,10)
 Model                              2         23       2.1178222                             1_GWF-(3,1,10)
 Model                              3         19      0.33243010                              1_GWF-(2,3,7)
 Model                              4          1 -9.19540000E-11       *                      1_GWF-(2,3,9)
 ----------------------------------------------------------------------------------------------------------


 4 CALLS TO NUMERICAL SOLUTION IN TIME STEP 3 STRESS PERIOD 8
 69 TOTAL ITERATIONS

    Solving:  Stress period:     8    Time step:     4


 SLN_1 OUTER ITERATION SUMMARY
 ----------------------------------------------------------------------------------------------------------
                                OUTER      INNER                    STEP   MAXIMUM CHANGE MODEL-(CELLID) OR
 OUTER ITERATION STEP       ITERATION  ITERATION  MAXIMUM CHANGE SUCCESS             MODEL-PACKAGE-(NUMBER)
 ----------------------------------------------------------------------------------------------------------
 Model                              1         27      -8.3627006                             1_GWF-(3,1,10)
 Model                              2         23       7.9618784                              1_GWF-(3,1,8)
 Model                              3         23       2.8675698                              1_GWF-(2,2,4)
 Model                              4         23      0.71838076                             1_GWF-(2,10,2)
 Model                              5          1 -4.01225719E-11       *                      1_GWF-(2,9,9)
 ----------------------------------------------------------------------------------------------------------


 5 CALLS TO NUMERICAL SOLUTION IN TIME STEP 4 STRESS PERIOD 8
 97 TOTAL ITERATIONS

    Solving:  Stress period:     8    Time step:     5


 SLN_1 OUTER ITERATION SUMMARY
 ----------------------------------------------------------------------------------------------------------
                                OUTER      INNER                    STEP   MAXIMUM CHANGE MODEL-(CELLID) OR
 OUTER ITERATION STEP       ITERATION  ITERATION  MAXIMUM CHANGE SUCCESS             MODEL-PACKAGE-(NUMBER)
 ----------------------------------------------------------------------------------------------------------
 Model                              1         26      -3.1665745                             1_GWF-(3,10,7)
 Model                              2         24       2.7297763                             1_GWF-(3,10,7)
 Model                              3         23      0.64531324                              1_GWF-(2,9,2)
 Model                              4          1 -5.04867259E-11       *                      1_GWF-(2,9,9)
 ----------------------------------------------------------------------------------------------------------


 4 CALLS TO NUMERICAL SOLUTION IN TIME STEP 5 STRESS PERIOD 8
 74 TOTAL ITERATIONS

    Solving:  Stress period:     8    Time step:     6


 SLN_1 OUTER ITERATION SUMMARY
 ----------------------------------------------------------------------------------------------------------
                                OUTER      INNER                    STEP   MAXIMUM CHANGE MODEL-(CELLID) OR
 OUTER ITERATION STEP       ITERATION  ITERATION  MAXIMUM CHANGE SUCCESS             MODEL-PACKAGE-(NUMBER)
 ----------------------------------------------------------------------------------------------------------
 Model                              1         26      -4.8343112                            1_GWF-(3,10,10)
 Model                              2         25       4.2682670                            1_GWF-(3,10,10)
 Model                              3         22       1.1677511                              1_GWF-(2,6,6)
 Model                              4         22      0.38448512                             1_GWF-(2,10,9)
 Model                              5          1 -2.38726372E-10       *                      1_GWF-(2,9,9)
 ----------------------------------------------------------------------------------------------------------


 5 CALLS TO NUMERICAL SOLUTION IN TIME STEP 6 STRESS PERIOD 8
 96 TOTAL ITERATIONS

    Solving:  Stress period:     9    Time step:     1

1
                            STRESS PERIOD NO. 9, LENGTH =   365.2500    
                            -----------------------------------------------
                            NUMBER OF TIME STEPS = 6
                            MULTIPLIER FOR DELT =     1.300
                            INITIAL TIME STEP SIZE =   28.63352    

 SLN_1 OUTER ITERATION SUMMARY
 ----------------------------------------------------------------------------------------------------------
                                OUTER      INNER                    STEP   MAXIMUM CHANGE MODEL-(CELLID) OR
 OUTER ITERATION STEP       ITERATION  ITERATION  MAXIMUM CHANGE SUCCESS             MODEL-PACKAGE-(NUMBER)
 ----------------------------------------------------------------------------------------------------------
 Model                              1         21      -1.4493268                             1_GWF-(3,10,6)
 Model                              2         21       1.2990776                             1_GWF-(3,10,6)
 Model                              3         18      0.25091572                              1_GWF-(2,9,9)
 Model                              4          1  1.68338232E-10       *                      1_GWF-(2,9,7)
 ----------------------------------------------------------------------------------------------------------


 4 CALLS TO NUMERICAL SOLUTION IN TIME STEP 1 STRESS PERIOD 9
 61 TOTAL ITERATIONS

    Solving:  Stress period:     9    Time step:     2


 SLN_1 OUTER ITERATION SUMMARY
 ----------------------------------------------------------------------------------------------------------
                                OUTER      INNER                    STEP   MAXIMUM CHANGE MODEL-(CELLID) OR
 OUTER ITERATION STEP       ITERATION  ITERATION  MAXIMUM CHANGE SUCCESS             MODEL-PACKAGE-(NUMBER)
 ----------------------------------------------------------------------------------------------------------
 Model                              1         23      -4.7174434                              1_GWF-(3,1,1)
 Model                              2         23       4.5034761                              1_GWF-(3,1,1)
 Model                              3         22       1.2057361                              1_GWF-(2,4,9)
 Model                              4         20      0.11383266                             1_GWF-(2,10,1)
 Model                              5         20      0.21014046                             1_GWF-(2,10,5)
 Model                              6         14  3.97730160E-03                              1_GWF-(2,9,4)
 Model                              7          1  2.55489851E-10       *                      1_GWF-(2,9,2)
 ----------------------------------------------------------------------------------------------------------


 7 CALLS TO NUMERICAL SOLUTION IN TIME STEP 2 STRESS PERIOD 9
 123 TOTAL ITERATIONS

    Solving:  Stress period:     9    Time step:     3


 SLN_1 OUTER ITERATION SUMMARY
 ----------------------------------------------------------------------------------------------------------
                                OUTER      INNER                    STEP   MAXIMUM CHANGE MODEL-(CELLID) OR
 OUTER ITERATION STEP       ITERATION  ITERATION  MAXIMUM CHANGE SUCCESS             MODEL-PACKAGE-(NUMBER)
 ----------------------------------------------------------------------------------------------------------
 Model                              1         25      -4.8654322                              1_GWF-(3,1,1)
 Model                              2         23       4.5891170                              1_GWF-(3,1,1)
 Model                              3         22       1.2709004                              1_GWF-(2,4,4)
 Model                              4         20  8.22489121E-02                             1_GWF-(2,10,1)
 Model                              5         20  3.88070658E-02                             1_GWF-(2,10,8)
 Model                              6         20  5.98968759E-02                             1_GWF-(2,10,6)
 Model                              7          1  2.79927193E-11       *                      1_GWF-(2,9,9)
 ----------------------------------------------------------------------------------------------------------


 7 CALLS TO NUMERICAL SOLUTION IN TIME STEP 3 STRESS PERIOD 9
 131 TOTAL ITERATIONS

    Solving:  Stress period:     9    Time step:     4


 SLN_1 OUTER ITERATION SUMMARY
 ----------------------------------------------------------------------------------------------------------
                                OUTER      INNER                    STEP   MAXIMUM CHANGE MODEL-(CELLID) OR
 OUTER ITERATION STEP       ITERATION  ITERATION  MAXIMUM CHANGE SUCCESS             MODEL-PACKAGE-(NUMBER)
 ----------------------------------------------------------------------------------------------------------
 Model                              1         25      -2.0317980                             1_GWF-(3,1,10)
 Model                              2         23       1.6766655                             1_GWF-(3,1,10)
 Model                              3         21      0.29270911                              1_GWF-(2,8,3)
 Model                              4         18  9.29010334E-03                             1_GWF-(2,10,9)
 Model                              5         15  7.95566432E-04                             1_GWF-(2,10,8)
 Model                              6          1  5.16645393E-10       *                      1_GWF-(2,2,2)
 ----------------------------------------------------------------------------------------------------------


 6 CALLS TO NUMERICAL SOLUTION IN TIME STEP 4 STRESS PERIOD 9
 103 TOTAL ITERATIONS

    Solving:  Stress period:     9    Time step:     5


 SLN_1 OUTER ITERATION SUMMARY
 ----------------------------------------------------------------------------------------------------------
                                OUTER      INNER                    STEP   MAXIMUM CHANGE MODEL-(CELLID) OR
 OUTER ITERATION STEP       ITERATION  ITERATION  MAXIMUM CHANGE SUCCESS             MODEL-PACKAGE-(NUMBER)
 ----------------------------------------------------------------------------------------------------------
 Model                              1         25      -2.6717360                             1_GWF-(3,3,10)
 Model                              2         24       2.2180118                             1_GWF-(3,3,10)
 Model                              3         22      0.64313828                              1_GWF-(2,4,9)
 Model                              4         17  5.80042958E-03                              1_GWF-(2,8,9)
 Model                              5          1 -2.55500510E-10       *                      1_GWF-(2,2,2)
 ----------------------------------------------------------------------------------------------------------


 5 CALLS TO NUMERICAL SOLUTION IN TIME STEP 5 STRESS PERIOD 9
 89 TOTAL ITERATIONS

    Solving:  Stress period:     9    Time step:     6


 SLN_1 OUTER ITERATION SUMMARY
 ----------------------------------------------------------------------------------------------------------
                                OUTER      INNER                    STEP   MAXIMUM CHANGE MODEL-(CELLID) OR
 OUTER ITERATION STEP       ITERATION  ITERATION  MAXIMUM CHANGE SUCCESS             MODEL-PACKAGE-(NUMBER)
 ----------------------------------------------------------------------------------------------------------
 Model                              1         26      -3.2263460                             1_GWF-(3,4,10)
 Model                              2         24       2.6481041                             1_GWF-(3,4,10)
 Model                              3         22      0.75480313                              1_GWF-(2,3,9)
 Model                              4         20  1.94901572E-02                             1_GWF-(2,9,10)
 Model                              5          1 -2.46105358E-11       *                      1_GWF-(2,6,9)
 ----------------------------------------------------------------------------------------------------------


 5 CALLS TO NUMERICAL SOLUTION IN TIME STEP 6 STRESS PERIOD 9
 93 TOTAL ITERATIONS

    Solving:  Stress period:    10    Time step:     1

1
                            STRESS PERIOD NO. 10, LENGTH =   365.2500    
                            -----------------------------------------------
                            NUMBER OF TIME STEPS = 6
                            MULTIPLIER FOR DELT =     1.300
                            INITIAL TIME STEP SIZE =   28.63352    

 SLN_1 OUTER ITERATION SUMMARY
 ----------------------------------------------------------------------------------------------------------
                                OUTER      INNER                    STEP   MAXIMUM CHANGE MODEL-(CELLID) OR
 OUTER ITERATION STEP       ITERATION  ITERATION  MAXIMUM CHANGE SUCCESS             MODEL-PACKAGE-(NUMBER)
 ----------------------------------------------------------------------------------------------------------
 Model                              1         22      -1.3210199                            1_GWF-(3,10,10)
 Model                              2         22       1.1745779                            1_GWF-(3,10,10)
 Model                              3         18      0.21415962                              1_GWF-(2,5,9)
 Model                              4          1  1.92857286E-10       *                      1_GWF-(2,6,8)
 ----------------------------------------------------------------------------------------------------------


 4 CALLS TO NUMERICAL SOLUTION IN TIME STEP 1 STRESS PERIOD 10
 63 TOTAL ITERATIONS

    Solving:  Stress period:    10    Time step:     2


 SLN_1 OUTER ITERATION SUMMARY
 ----------------------------------------------------------------------------------------------------------
                                OUTER      INNER                    STEP   MAXIMUM CHANGE MODEL-(CELLID) OR
 OUTER ITERATION STEP       ITERATION  ITERATION  MAXIMUM CHANGE SUCCESS             MODEL-PACKAGE-(NUMBER)
 ----------------------------------------------------------------------------------------------------------
 Model                              1         24      -3.2216627                              1_GWF-(3,1,1)
 Model                              2         22       3.0177442                              1_GWF-(3,1,1)
 Model                              3         21      0.60100976                              1_GWF-(2,3,9)
 Model                              4         19      0.10682261                              1_GWF-(2,8,1)
 Model                              5         18  2.62280243E-02                              1_GWF-(2,9,1)
 Model                              6          1 -6.14148732E-11       *                      1_GWF-(2,2,2)
 ----------------------------------------------------------------------------------------------------------


 6 CALLS TO NUMERICAL SOLUTION IN TIME STEP 2 STRESS PERIOD 10
 105 TOTAL ITERATIONS

    Solving:  Stress period:    10    Time step:     3


 SLN_1 OUTER ITERATION SUMMARY
 ----------------------------------------------------------------------------------------------------------
                                OUTER      INNER                    STEP   MAXIMUM CHANGE MODEL-(CELLID) OR
 OUTER ITERATION STEP       ITERATION  ITERATION  MAXIMUM CHANGE SUCCESS             MODEL-PACKAGE-(NUMBER)
 ----------------------------------------------------------------------------------------------------------
 Model                              1         24      -1.7827024                              1_GWF-(3,5,1)
 Model                              2         23       1.5256655                              1_GWF-(3,5,1)
 Model                              3         20      0.40500819                              1_GWF-(2,5,3)
 Model                              4         18  4.38040010E-02                             1_GWF-(2,8,10)
 Model                              5          1 -2.93991498E-10       *                      1_GWF-(2,2,2)
 ----------------------------------------------------------------------------------------------------------


 5 CALLS TO NUMERICAL SOLUTION IN TIME STEP 3 STRESS PERIOD 10
 86 TOTAL ITERATIONS

    Solving:  Stress period:    10    Time step:     4


 SLN_1 OUTER ITERATION SUMMARY
 ----------------------------------------------------------------------------------------------------------
                                OUTER      INNER                    STEP   MAXIMUM CHANGE MODEL-(CELLID) OR
 OUTER ITERATION STEP       ITERATION  ITERATION  MAXIMUM CHANGE SUCCESS             MODEL-PACKAGE-(NUMBER)
 ----------------------------------------------------------------------------------------------------------
 Model                              1         25      -2.5687369                             1_GWF-(3,6,10)
 Model                              2         23       2.2414985                             1_GWF-(3,6,10)
 Model                              3         21      0.49459171                              1_GWF-(2,4,3)
 Model                              4         20  4.11884594E-02                              1_GWF-(2,8,1)
 Model                              5          1 -2.52295962E-11       *                      1_GWF-(2,3,9)
 ----------------------------------------------------------------------------------------------------------


 5 CALLS TO NUMERICAL SOLUTION IN TIME STEP 4 STRESS PERIOD 10
 90 TOTAL ITERATIONS

    Solving:  Stress period:    10    Time step:     5


 SLN_1 OUTER ITERATION SUMMARY
 ----------------------------------------------------------------------------------------------------------
                                OUTER      INNER                    STEP   MAXIMUM CHANGE MODEL-(CELLID) OR
 OUTER ITERATION STEP       ITERATION  ITERATION  MAXIMUM CHANGE SUCCESS             MODEL-PACKAGE-(NUMBER)
 ----------------------------------------------------------------------------------------------------------
 Model                              1         26      -2.8473063                            1_GWF-(3,10,10)
 Model                              2         23       2.4382139                            1_GWF-(3,10,10)
 Model                              3         21      0.28141935                              1_GWF-(2,4,3)
 Model                              4         19  3.03041848E-02                             1_GWF-(2,7,10)
 Model                              5          1 -2.01385575E-11       *                      1_GWF-(2,2,6)
 ----------------------------------------------------------------------------------------------------------


 5 CALLS TO NUMERICAL SOLUTION IN TIME STEP 5 STRESS PERIOD 10
 90 TOTAL ITERATIONS

    Solving:  Stress period:    10    Time step:     6


 SLN_1 OUTER ITERATION SUMMARY
 ----------------------------------------------------------------------------------------------------------
                                OUTER      INNER                    STEP   MAXIMUM CHANGE MODEL-(CELLID) OR
 OUTER ITERATION STEP       ITERATION  ITERATION  MAXIMUM CHANGE SUCCESS             MODEL-PACKAGE-(NUMBER)
 ----------------------------------------------------------------------------------------------------------
[...]
                                OUTER      INNER                    STEP   MAXIMUM CHANGE MODEL-(CELLID) OR
 OUTER ITERATION STEP       ITERATION  ITERATION  MAXIMUM CHANGE SUCCESS             MODEL-PACKAGE-(NUMBER)
 ----------------------------------------------------------------------------------------------------------
 Model                              1         22      -2.3317426                              1_GWF-(2,4,7)
 Model                              2         20       2.2833679                              1_GWF-(2,4,7)
 Model                              3          1 -3.80131482E-11       *                      1_GWF-(1,6,9)
 ----------------------------------------------------------------------------------------------------------


 3 CALLS TO NUMERICAL SOLUTION IN TIME STEP 1 STRESS PERIOD 29
 43 TOTAL ITERATIONS

    Solving:  Stress period:    29    Time step:     2


 SLN_1 OUTER ITERATION SUMMARY
 ----------------------------------------------------------------------------------------------------------
                                OUTER      INNER                    STEP   MAXIMUM CHANGE MODEL-(CELLID) OR
 OUTER ITERATION STEP       ITERATION  ITERATION  MAXIMUM CHANGE SUCCESS             MODEL-PACKAGE-(NUMBER)
 ----------------------------------------------------------------------------------------------------------
 Model                              1         21      -2.6603664                              1_GWF-(2,3,5)
 Model                              2         20       2.5975953                              1_GWF-(2,3,5)
 Model                              3          1 -7.56390506E-11       *                      1_GWF-(1,3,1)
 ----------------------------------------------------------------------------------------------------------


 3 CALLS TO NUMERICAL SOLUTION IN TIME STEP 2 STRESS PERIOD 29
 42 TOTAL ITERATIONS

    Solving:  Stress period:    29    Time step:     3


 SLN_1 OUTER ITERATION SUMMARY
 ----------------------------------------------------------------------------------------------------------
                                OUTER      INNER                    STEP   MAXIMUM CHANGE MODEL-(CELLID) OR
 OUTER ITERATION STEP       ITERATION  ITERATION  MAXIMUM CHANGE SUCCESS             MODEL-PACKAGE-(NUMBER)
 ----------------------------------------------------------------------------------------------------------
 Model                              1         23      -3.0476674                              1_GWF-(2,4,8)
 Model                              2         20       2.9665814                              1_GWF-(2,4,8)
 Model                              3          1  1.11661791E-10       *                      1_GWF-(1,5,9)
 ----------------------------------------------------------------------------------------------------------


 3 CALLS TO NUMERICAL SOLUTION IN TIME STEP 3 STRESS PERIOD 29
 44 TOTAL ITERATIONS

    Solving:  Stress period:    29    Time step:     4


 SLN_1 OUTER ITERATION SUMMARY
 ----------------------------------------------------------------------------------------------------------
                                OUTER      INNER                    STEP   MAXIMUM CHANGE MODEL-(CELLID) OR
 OUTER ITERATION STEP       ITERATION  ITERATION  MAXIMUM CHANGE SUCCESS             MODEL-PACKAGE-(NUMBER)
 ----------------------------------------------------------------------------------------------------------
 Model                              1         23      -3.3152846                              1_GWF-(2,6,8)
 Model                              2         21       3.2124654                              1_GWF-(2,6,8)
 Model                              3          1  6.14477358E-11       *                      1_GWF-(3,4,1)
 ----------------------------------------------------------------------------------------------------------


 3 CALLS TO NUMERICAL SOLUTION IN TIME STEP 4 STRESS PERIOD 29
 45 TOTAL ITERATIONS

    Solving:  Stress period:    29    Time step:     5


 SLN_1 OUTER ITERATION SUMMARY
 ----------------------------------------------------------------------------------------------------------
                                OUTER      INNER                    STEP   MAXIMUM CHANGE MODEL-(CELLID) OR
 OUTER ITERATION STEP       ITERATION  ITERATION  MAXIMUM CHANGE SUCCESS             MODEL-PACKAGE-(NUMBER)
 ----------------------------------------------------------------------------------------------------------
 Model                              1         24      -3.4888254                              1_GWF-(2,4,7)
 Model                              2         21       3.3520420                              1_GWF-(2,7,8)
 Model                              3          1  6.30890895E-11       *                      1_GWF-(1,3,1)
 ----------------------------------------------------------------------------------------------------------


 3 CALLS TO NUMERICAL SOLUTION IN TIME STEP 5 STRESS PERIOD 29
 46 TOTAL ITERATIONS

    Solving:  Stress period:    29    Time step:     6


 SLN_1 OUTER ITERATION SUMMARY
 ----------------------------------------------------------------------------------------------------------
                                OUTER      INNER                    STEP   MAXIMUM CHANGE MODEL-(CELLID) OR
 OUTER ITERATION STEP       ITERATION  ITERATION  MAXIMUM CHANGE SUCCESS             MODEL-PACKAGE-(NUMBER)
 ----------------------------------------------------------------------------------------------------------
 Model                              1         24      -3.8259042                              1_GWF-(2,3,5)
 Model                              2         21       3.6483754                              1_GWF-(2,3,5)
 Model                              3          1  1.17546861E-10       *                      1_GWF-(1,4,3)
 ----------------------------------------------------------------------------------------------------------


 3 CALLS TO NUMERICAL SOLUTION IN TIME STEP 6 STRESS PERIOD 29
 46 TOTAL ITERATIONS

    Solving:  Stress period:    30    Time step:     1

1
                            STRESS PERIOD NO. 30, LENGTH =   365.2500    
                            -----------------------------------------------
                            NUMBER OF TIME STEPS = 6
                            MULTIPLIER FOR DELT =     1.300
                            INITIAL TIME STEP SIZE =   28.63352    

 SLN_1 OUTER ITERATION SUMMARY
 ----------------------------------------------------------------------------------------------------------
                                OUTER      INNER                    STEP   MAXIMUM CHANGE MODEL-(CELLID) OR
 OUTER ITERATION STEP       ITERATION  ITERATION  MAXIMUM CHANGE SUCCESS             MODEL-PACKAGE-(NUMBER)
 ----------------------------------------------------------------------------------------------------------
 Model                              1         22      -2.3622911                              1_GWF-(2,4,7)
 Model                              2         20       2.3145396                              1_GWF-(2,4,7)
 Model                              3          1 -4.41993109E-11       *                      1_GWF-(1,3,1)
 ----------------------------------------------------------------------------------------------------------


 3 CALLS TO NUMERICAL SOLUTION IN TIME STEP 1 STRESS PERIOD 30
 43 TOTAL ITERATIONS

    Solving:  Stress period:    30    Time step:     2


 SLN_1 OUTER ITERATION SUMMARY
 ----------------------------------------------------------------------------------------------------------
                                OUTER      INNER                    STEP   MAXIMUM CHANGE MODEL-(CELLID) OR
 OUTER ITERATION STEP       ITERATION  ITERATION  MAXIMUM CHANGE SUCCESS             MODEL-PACKAGE-(NUMBER)
 ----------------------------------------------------------------------------------------------------------
 Model                              1         22      -2.6608226                              1_GWF-(2,3,4)
 Model                              2         20       2.5994545                              1_GWF-(2,3,4)
 Model                              3          1 -8.39293079E-11       *                      1_GWF-(1,3,1)
 ----------------------------------------------------------------------------------------------------------


 3 CALLS TO NUMERICAL SOLUTION IN TIME STEP 2 STRESS PERIOD 30
 43 TOTAL ITERATIONS

    Solving:  Stress period:    30    Time step:     3


 SLN_1 OUTER ITERATION SUMMARY
 ----------------------------------------------------------------------------------------------------------
                                OUTER      INNER                    STEP   MAXIMUM CHANGE MODEL-(CELLID) OR
 OUTER ITERATION STEP       ITERATION  ITERATION  MAXIMUM CHANGE SUCCESS             MODEL-PACKAGE-(NUMBER)
 ----------------------------------------------------------------------------------------------------------
 Model                              1         22      -2.9303394                              1_GWF-(2,4,7)
 Model                              2         20       2.8498972                              1_GWF-(2,4,7)
 Model                              3          1  9.83493287E-11       *                      1_GWF-(1,8,2)
 ----------------------------------------------------------------------------------------------------------


 3 CALLS TO NUMERICAL SOLUTION IN TIME STEP 3 STRESS PERIOD 30
 43 TOTAL ITERATIONS

    Solving:  Stress period:    30    Time step:     4


 SLN_1 OUTER ITERATION SUMMARY
 ----------------------------------------------------------------------------------------------------------
                                OUTER      INNER                    STEP   MAXIMUM CHANGE MODEL-(CELLID) OR
 OUTER ITERATION STEP       ITERATION  ITERATION  MAXIMUM CHANGE SUCCESS             MODEL-PACKAGE-(NUMBER)
 ----------------------------------------------------------------------------------------------------------
 Model                              1         23      -3.1998675                              1_GWF-(2,3,5)
 Model                              2         21       3.0973071                              1_GWF-(2,7,5)
 Model                              3          1 -4.49122961E-11       *                      1_GWF-(1,9,9)
 ----------------------------------------------------------------------------------------------------------


 3 CALLS TO NUMERICAL SOLUTION IN TIME STEP 4 STRESS PERIOD 30
 45 TOTAL ITERATIONS

    Solving:  Stress period:    30    Time step:     5


 SLN_1 OUTER ITERATION SUMMARY
 ----------------------------------------------------------------------------------------------------------
                                OUTER      INNER                    STEP   MAXIMUM CHANGE MODEL-(CELLID) OR
 OUTER ITERATION STEP       ITERATION  ITERATION  MAXIMUM CHANGE SUCCESS             MODEL-PACKAGE-(NUMBER)
 ----------------------------------------------------------------------------------------------------------
 Model                              1         24      -3.5754842                              1_GWF-(2,4,7)
 Model                              2         21       3.4402900                              1_GWF-(2,4,7)
 Model                              3          1  7.31219529E-11       *                      1_GWF-(3,3,2)
 ----------------------------------------------------------------------------------------------------------


 3 CALLS TO NUMERICAL SOLUTION IN TIME STEP 5 STRESS PERIOD 30
 46 TOTAL ITERATIONS

    Solving:  Stress period:    30    Time step:     6


 SLN_1 OUTER ITERATION SUMMARY
 ----------------------------------------------------------------------------------------------------------
                                OUTER      INNER                    STEP   MAXIMUM CHANGE MODEL-(CELLID) OR
 OUTER ITERATION STEP       ITERATION  ITERATION  MAXIMUM CHANGE SUCCESS             MODEL-PACKAGE-(NUMBER)
 ----------------------------------------------------------------------------------------------------------
 Model                              1         25      -3.8018742                              1_GWF-(2,6,5)
 Model                              2         21       3.6318298                              1_GWF-(2,6,5)
 Model                              3          1  1.23755228E-10       *                      1_GWF-(1,3,1)
 ----------------------------------------------------------------------------------------------------------


 3 CALLS TO NUMERICAL SOLUTION IN TIME STEP 6 STRESS PERIOD 30
 47 TOTAL ITERATIONS

    Solving:  Stress period:    31    Time step:     1

1
                            STRESS PERIOD NO. 31, LENGTH =   365.2500    
                            -----------------------------------------------
                            NUMBER OF TIME STEPS = 6
                            MULTIPLIER FOR DELT =     1.300
                            INITIAL TIME STEP SIZE =   28.63352    

 SLN_1 OUTER ITERATION SUMMARY
 ----------------------------------------------------------------------------------------------------------
                                OUTER      INNER                    STEP   MAXIMUM CHANGE MODEL-(CELLID) OR
 OUTER ITERATION STEP       ITERATION  ITERATION  MAXIMUM CHANGE SUCCESS             MODEL-PACKAGE-(NUMBER)
 ----------------------------------------------------------------------------------------------------------
 Model                              1         22      -2.2608103                              1_GWF-(2,4,7)
 Model                              2         20       2.2137267                              1_GWF-(2,4,7)
 Model                              3          1 -3.53148621E-11       *                      1_GWF-(1,6,9)
 ----------------------------------------------------------------------------------------------------------


 3 CALLS TO NUMERICAL SOLUTION IN TIME STEP 1 STRESS PERIOD 31
 43 TOTAL ITERATIONS

    Solving:  Stress period:    31    Time step:     2


 SLN_1 OUTER ITERATION SUMMARY
 ----------------------------------------------------------------------------------------------------------
                                OUTER      INNER                    STEP   MAXIMUM CHANGE MODEL-(CELLID) OR
 OUTER ITERATION STEP       ITERATION  ITERATION  MAXIMUM CHANGE SUCCESS             MODEL-PACKAGE-(NUMBER)
 ----------------------------------------------------------------------------------------------------------
 Model                              1         21      -2.5752392                              1_GWF-(2,3,4)
 Model                              2         20       2.5146008                              1_GWF-(2,3,4)
 Model                              3          1 -7.48716644E-11       *                      1_GWF-(1,3,1)
 ----------------------------------------------------------------------------------------------------------


 3 CALLS TO NUMERICAL SOLUTION IN TIME STEP 2 STRESS PERIOD 31
 42 TOTAL ITERATIONS

    Solving:  Stress period:    31    Time step:     3


 SLN_1 OUTER ITERATION SUMMARY
 ----------------------------------------------------------------------------------------------------------
                                OUTER      INNER                    STEP   MAXIMUM CHANGE MODEL-(CELLID) OR
 OUTER ITERATION STEP       ITERATION  ITERATION  MAXIMUM CHANGE SUCCESS             MODEL-PACKAGE-(NUMBER)
 ----------------------------------------------------------------------------------------------------------
 Model                              1         22      -2.9754555                              1_GWF-(2,4,7)
 Model                              2         20       2.8961574                              1_GWF-(2,4,7)
 Model                              3          1  1.21665344E-10       *                      1_GWF-(1,5,9)
 ----------------------------------------------------------------------------------------------------------


 3 CALLS TO NUMERICAL SOLUTION IN TIME STEP 3 STRESS PERIOD 31
 43 TOTAL ITERATIONS

    Solving:  Stress period:    31    Time step:     4


 SLN_1 OUTER ITERATION SUMMARY
 ----------------------------------------------------------------------------------------------------------
                                OUTER      INNER                    STEP   MAXIMUM CHANGE MODEL-(CELLID) OR
 OUTER ITERATION STEP       ITERATION  ITERATION  MAXIMUM CHANGE SUCCESS             MODEL-PACKAGE-(NUMBER)
 ----------------------------------------------------------------------------------------------------------
 Model                              1         22      -3.1751955                              1_GWF-(2,3,4)
 Model                              2         21       3.0731145                              1_GWF-(2,3,4)
 Model                              3          1  4.19433377E-11       *                      1_GWF-(3,3,1)
 ----------------------------------------------------------------------------------------------------------


 3 CALLS TO NUMERICAL SOLUTION IN TIME STEP 4 STRESS PERIOD 31
 44 TOTAL ITERATIONS

    Solving:  Stress period:    31    Time step:     5


 SLN_1 OUTER ITERATION SUMMARY
 ----------------------------------------------------------------------------------------------------------
                                OUTER      INNER                    STEP   MAXIMUM CHANGE MODEL-(CELLID) OR
 OUTER ITERATION STEP       ITERATION  ITERATION  MAXIMUM CHANGE SUCCESS             MODEL-PACKAGE-(NUMBER)
 ----------------------------------------------------------------------------------------------------------
 Model                              1         24      -3.5604290                              1_GWF-(2,4,7)
 Model                              2         21       3.4272085                              1_GWF-(2,4,7)
 Model                              3          1  6.93205493E-11       *                      1_GWF-(3,3,5)
 ----------------------------------------------------------------------------------------------------------


 3 CALLS TO NUMERICAL SOLUTION IN TIME STEP 5 STRESS PERIOD 31
 46 TOTAL ITERATIONS

    Solving:  Stress period:    31    Time step:     6


 SLN_1 OUTER ITERATION SUMMARY
 ----------------------------------------------------------------------------------------------------------
                                OUTER      INNER                    STEP   MAXIMUM CHANGE MODEL-(CELLID) OR
 OUTER ITERATION STEP       ITERATION  ITERATION  MAXIMUM CHANGE SUCCESS             MODEL-PACKAGE-(NUMBER)
 ----------------------------------------------------------------------------------------------------------
 Model                              1         24      -3.7117464                              1_GWF-(2,3,4)
 Model                              2         21       3.5404059                              1_GWF-(2,3,4)
 Model                              3          1  9.61559721E-11       *                      1_GWF-(1,3,1)
 ----------------------------------------------------------------------------------------------------------


 3 CALLS TO NUMERICAL SOLUTION IN TIME STEP 6 STRESS PERIOD 31
 46 TOTAL ITERATIONS


 Solution SLN_1 summary
 ----------------------------------------------------------------------
 Total formulate time:  0.57565999999999728E-1 seconds
 Total solution time:   0.58958000000000205E-1 seconds


 MEMORY MANAGER TOTAL STORAGE BY DATA TYPE, IN KILOBYTES
 -------------------------------
                    ALLOCATED   
 DATA TYPE           MEMORY     
 -------------------------------
 Character        8.1850000     
 Logical          4.00000000E-02
 Integer          76.208000     
 Real             236.45600     
 -------------------------------
 Total            320.88900     
 Virtual          0.0000000     
 -------------------------------



 Run end date and time (yyyy/mm/dd hh:mm:ss): 2023/10/30  9:02:46
 Elapsed run time:  0.191 Seconds
 Normal termination of simulation.
