                                  MODFLOW-2000
      U.S. GEOLOGICAL SURVEY MODULAR FINITE-DIFFERENCE GROUND-WATER FLOW MODEL
                           VERSION 1.18.01 06/20/2008


 This model run combines GLOBAL and LIST output into this single file.

 GLOBAL LISTING FILE: t5.lst
                         UNIT    7
#                                                                                                                                                                                                       
# Input files                                                                                                                                                                                           

 OPENING t5.dis
 FILE TYPE:DIS   UNIT    8   STATUS:OLD    
 FORMAT:FORMATTED              ACCESS:SEQUENTIAL          

 OPENING t5.bas
 FILE TYPE:BAS6   UNIT    9   STATUS:OLD    
 FORMAT:FORMATTED              ACCESS:SEQUENTIAL          

 OPENING t5.bcf
 FILE TYPE:BCF6   UNIT   10   STATUS:OLD    
 FORMAT:FORMATTED              ACCESS:SEQUENTIAL          

 OPENING t5.mnw
 FILE TYPE:MNW1   UNIT   75   STATUS:OLD    
 FORMAT:FORMATTED              ACCESS:SEQUENTIAL          

 OPENING t5.pcg
 FILE TYPE:PCG   UNIT   74   STATUS:OLD    
 FORMAT:FORMATTED              ACCESS:SEQUENTIAL          

 OPENING t5.oc
 FILE TYPE:OC   UNIT   71   STATUS:OLD    
 FORMAT:FORMATTED              ACCESS:SEQUENTIAL          

 OPENING t5.lmt
 FILE TYPE:LMT6   UNIT   66   STATUS:OLD    
 FORMAT:FORMATTED              ACCESS:SEQUENTIAL          
#                                                                                                                                                                                                       
# Binary output files                                                                                                                                                                                   

 OPENING t5.ufh
 FILE TYPE:DATA(BINARY)   UNIT   89   STATUS:REPLACE
 FORMAT:BINARY                 ACCESS:SEQUENTIAL          

 OPENING t5.cbc
 FILE TYPE:DATA(BINARY)   UNIT   90   STATUS:REPLACE
 FORMAT:BINARY                 ACCESS:SEQUENTIAL          

 THE FREE FORMAT OPTION HAS BEEN SELECTED

 DISCRETIZATION INPUT DATA READ FROM UNIT    8
    3 LAYERS       101 ROWS       101 COLUMNS
    1 STRESS PERIOD(S) IN SIMULATION
 MODEL TIME UNIT IS SECONDS
 MODEL LENGTH UNIT IS FEET
 THE GROUND-WATER TRANSPORT PROCESS IS INACTIVE

 THE OBSERVATION PROCESS IS INACTIVE
 THE SENSITIVITY PROCESS IS INACTIVE
 THE PARAMETER-ESTIMATION PROCESS IS INACTIVE

 MODE: FORWARD

  Confining bed flag for each layer:
   0   0   0

     275629  ELEMENTS OF GX ARRAY USED OUT OF     275629
      30603  ELEMENTS OF GZ ARRAY USED OUT OF      30603
      30603  ELEMENTS OF IG ARRAY USED OUT OF      30603



                               DELR
 READING ON UNIT    8 WITH FORMAT: (10F11.0)           
   2798.0       2465.0       2172.0       1914.0       1687.0    
   1486.0       1309.0       1154.0       1017.0       895.80    
   789.40       695.50       612.90       540.00       475.80    
   419.30       369.40       325.50       286.80       252.70    
   222.70       196.20       172.90       152.30       134.20    
   118.30       104.20       91.830       80.920       71.300    
   62.820       55.360       48.780       42.980       37.870    
   33.370       29.400       25.910       22.830       20.110    
   17.720       15.620       13.760       12.120       10.680    
   9.4140       8.2950       7.3090       6.4400       5.6740    
   5.0000       5.6740       6.4400       7.3090       8.2950    
   9.4140       10.680       12.120       13.760       15.620    
   17.720       20.110       22.830       25.910       29.400    
   33.370       37.870       42.980       48.780       55.360    
   62.820       71.300       80.920       91.830       104.20    
   118.30       134.20       152.30       172.90       196.20    
   222.70       252.70       286.80       325.50       369.40    
   419.30       475.80       540.00       612.90       695.50    
   789.40       895.80       1017.0       1154.0       1309.0    
   1486.0       1687.0       1914.0       2172.0       2465.0    
   2798.0    



                               DELC
 READING ON UNIT    8 WITH FORMAT: (10F11.0)           
   2798.0       2465.0       2172.0       1914.0       1687.0    
   1486.0       1309.0       1154.0       1017.0       895.80    
   789.40       695.50       612.90       540.00       475.80    
   419.30       369.40       325.50       286.80       252.70    
   222.70       196.20       172.90       152.30       134.20    
   118.30       104.20       91.830       80.920       71.300    
   62.820       55.360       48.780       42.980       37.870    
   33.370       29.400       25.910       22.830       20.110    
   17.720       15.620       13.760       12.120       10.680    
   9.4140       8.2950       7.3090       6.4400       5.6740    
   5.0000       5.6740       6.4400       7.3090       8.2950    
   9.4140       10.680       12.120       13.760       15.620    
   17.720       20.110       22.830       25.910       29.400    
   33.370       37.870       42.980       48.780       55.360    
   62.820       71.300       80.920       91.830       104.20    
   118.30       134.20       152.30       172.90       196.20    
   222.70       252.70       286.80       325.50       369.40    
   419.30       475.80       540.00       612.90       695.50    
   789.40       895.80       1017.0       1154.0       1309.0    
   1486.0       1687.0       1914.0       2172.0       2465.0    
   2798.0    

 TOP ELEVATION OF LAYER 1 =   220.000    

   MODEL LAYER BOTTOM EL. =   120.000     FOR LAYER   1

   MODEL LAYER BOTTOM EL. =   100.000     FOR LAYER   2

   MODEL LAYER BOTTOM EL. =   0.00000     FOR LAYER   3


 STRESS PERIOD     LENGTH       TIME STEPS     MULTIPLIER FOR DELT    SS FLAG
 ----------------------------------------------------------------------------
        1        8.6400000E+07    100                    1.100         TR

 TRANSIENT SIMULATION




 PCG2 -- CONJUGATE GRADIENT SOLUTION PACKAGE, VERSION 2.4, 12/29/98
 # MXITER, ITER1, NPCOND
 MAXIMUM OF   1000 CALLS OF SOLUTION ROUTINE
 MAXIMUM OF     10 INTERNAL ITERATIONS PER CALL TO SOLUTION ROUTINE
 MATRIX PRECONDITIONING TYPE :    1
      81206 ELEMENTS IN X ARRAY ARE USED BY PCG
      70000 ELEMENTS IN IX ARRAY ARE USED BY PCG
     122412 ELEMENTS IN Z ARRAY ARE USED BY PCG

      81206  ELEMENTS OF X ARRAY USED OUT OF      81206
     122412  ELEMENTS OF Z ARRAY USED OUT OF     122412
      70000  ELEMENTS OF IX ARRAY USED OUT OF      70000
          0  ELEMENTS OF XHS ARRAY USED OUT OF          1



                                    SOLUTION BY THE CONJUGATE-GRADIENT METHOD
                                   -------------------------------------------
                    MAXIMUM NUMBER OF CALLS TO PCG ROUTINE =     1000
                        MAXIMUM ITERATIONS PER CALL TO PCG =       10
                               MATRIX PRECONDITIONING TYPE =        1
        RELAXATION FACTOR (ONLY USED WITH PRECOND. TYPE 1) =    0.10000E+01
 PARAMETER OF POLYNOMIAL PRECOND. = 2 (2) OR IS CALCULATED :        2
                         HEAD CHANGE CRITERION FOR CLOSURE =    0.10000E-02
                     RESIDUAL CHANGE CRITERION FOR CLOSURE =    0.10000E+00
            PCG HEAD AND RESIDUAL CHANGE PRINTOUT INTERVAL =        1
     PRINTING FROM SOLVER IS LIMITED(1) OR SUPPRESSED (>1) =        1
                                         DAMPING PARAMETER =    0.10000E+01
 
 # MNW1 Package benchmarking - Transient 4                                       
 THE FREE FORMAT OPTION HAS BEEN SELECTED
    3 LAYERS       101 ROWS       101 COLUMNS
    1 STRESS PERIOD(S) IN SIMULATION

 BAS6 -- BASIC PACKAGE, VERSION 6, 1/11/2000 INPUT READ FROM UNIT    9
         15 ELEMENTS IN IR ARRAY ARE USED BY BAS

 BCF6 -- BLOCK-CENTERED FLOW PACKAGE, VERSION 6, 1/11/2000
         INPUT READ FROM UNIT 10
 TRANSIENT SIMULATION
 HEAD AT CELLS THAT CONVERT TO DRY=  0.10000E+31
 WETTING CAPABILITY IS NOT ACTIVE
      LAYER  LAYER-TYPE CODE     INTERBLOCK T
      --------------------------------------------
         1            0          0 -- HARMONIC    
         2            0          0 -- HARMONIC    
         3            0          0 -- HARMONIC    
      30606 ELEMENTS IN RX ARRAY ARE USED BY BCF

 MNW1 -- MULTI-NODE WELL PACKAGE, VERSION 1, 8/13/2002.
    INPUT READ FROM UNIT  75
 MAXIMUM OF    2 WELLS
 CELL-BY-CELL FLOWS WILL BE PRINTED WHEN ICBCFL NOT 0
  The heads at the beginning of SP:   1 will be the default reference elevations.

 Flow rates will not be estimated after the9999th iteration

  A WEL1   data input file will be written to t.wl1 on unit   91                

  A BYNODE data input file will be written to t.ByNode on unit   92             

  A QSUM   data input file will be written to t.Qsum on unit   93               
  30603 ELEMENTS IN X ARRAY ARE USED FOR MNW1

      30606  ELEMENTS OF RX ARRAY USED OUT OF      30606
      30657  ELEMENTS OF RZ ARRAY USED OUT OF      30657
         15  ELEMENTS OF IR ARRAY USED OUT OF         15
1
 # MNW1 Package benchmarking - Transient 4                                       
                                                                                 



                     BOUNDARY ARRAY FOR LAYER   1
 READING ON UNIT    9 WITH FORMAT: (20I3)              

           BOUNDARY ARRAY =              0 FOR LAYER   2



                     BOUNDARY ARRAY FOR LAYER   3
 READING ON UNIT    9 WITH FORMAT: (20I3)              

 AQUIFER HEAD WILL BE SET TO  999.00     AT ALL NO-FLOW NODES (IBOUND=0).

             INITIAL HEAD =   30.0000     FOR LAYER   1

             INITIAL HEAD =   20.0000     FOR LAYER   2

             INITIAL HEAD =   10.0000     FOR LAYER   3

 OUTPUT CONTROL IS SPECIFIED EVERY TIME STEP
 HEAD PRINT FORMAT CODE IS   0    DRAWDOWN PRINT FORMAT CODE IS   0
 HEADS WILL BE SAVED ON UNIT   89    DRAWDOWNS WILL BE SAVED ON UNIT    0

 COLUMN TO ROW ANISOTROPY =   1.00000    

     PRIMARY STORAGE COEF =  1.000000E-04 FOR LAYER   1

     TRANSMIS. ALONG ROWS =  4.630000E-02 FOR LAYER   1

 VERT HYD COND /THICKNESS =   0.00000     FOR LAYER   1

     PRIMARY STORAGE COEF =  1.000000E-04 FOR LAYER   2

     TRANSMIS. ALONG ROWS =   0.00000     FOR LAYER   2

 VERT HYD COND /THICKNESS =   0.00000     FOR LAYER   2

     PRIMARY STORAGE COEF =  1.000000E-04 FOR LAYER   3

     TRANSMIS. ALONG ROWS =  1.157000E-02 FOR LAYER   3
1
                            STRESS PERIOD NO.    1, LENGTH =  0.8640000E+08
                            -----------------------------------------------

                              NUMBER OF TIME STEPS =   100

                               MULTIPLIER FOR DELT =     1.100

                            INITIAL TIME STEP SIZE =   627.0121    
0              2 MNW WELLS
    No.   Lay   Row   Col    Stress   QW param      Rw       Skin    WL Limit    WL Refer   NonLinear Cp  QW Group  Cell-To-Well  Min-Qoff  Min-Qon  Site Identifier 
      1     1    51    51  0.000      0.000     0.5000      0.000      0.000      100.0      0.00000             1 0.425903         0.000     0.000  Well-1                          
      2     3    51    51  0.000      0.000     0.5000      0.000      0.000      100.0      0.00000             1 0.106430         0.000     0.000  Well-1                          
 
 SOLVING FOR HEAD 


     6 CALLS TO PCG ROUTINE FOR TIME STEP   1 IN STRESS PERIOD    1
    42 TOTAL ITERATIONS

 HEAD/DRAWDOWN PRINTOUT FLAG = 1     TOTAL BUDGET PRINTOUT FLAG = 0
 CELL-BY-CELL FLOW TERM FLAG = 1

 OUTPUT FLAGS FOR ALL LAYERS ARE THE SAME:
   HEAD    DRAWDOWN  HEAD  DRAWDOWN
 PRINTOUT  PRINTOUT  SAVE    SAVE
 ----------------------------------
     0         0       1       0

              MNW PERIOD =    1  STEP =    1
  Entry LAY ROW COL         Q      H-Well       H-Cell       DD           QW-Avg      s-LINEAR   s-NonLINEAR
      1   1  51  51 -.176050      25.6652      26.0785     -74.3348      0.00000     0.413371      0.00000    
      2   3  51  51 0.176050      25.6652      24.0110     -74.3348      0.00000     -1.65419      0.00000    

      Multi-Node Rates & Average QW 
 Site Identifier      ENTRY: Begin - End  Q-Total       H-Well       DD           QW-Avg
Well-1                          1     2 0.208167E-14  25.6652     -74.3348      0.00000    
 
 UBUDSV SAVING "             MNW" ON UNIT 90 AT TIME STEP  1, STRESS PERIOD    1


 ***Link-MT3DMS Package***
 OPENING LINK-MT3DMS OUTPUT FILE: t5.ftl                                                                                                                                                                                                  
 ON UNIT NUMBER:   333
 FILE TYPE: UNFORMATTED
 HEADER OPTION: EXTENDED
 ***Link-MT3DMS Package***


 SAVING SATURATED THICKNESS AND FLOW TERMS ON UNIT  333 FOR MT3DMS
 BY THE LINK-MT3DMS PACKAGE V6.3 AT TIME STEP    1, STRESS PERIOD    1


 HEAD WILL BE SAVED ON UNIT   89 AT END OF TIME STEP   1, STRESS PERIOD    1
 
 SOLVING FOR HEAD 
     4 CALLS TO PCG ROUTINE FOR TIME STEP   2 IN STRESS PERIOD    1
    27 TOTAL ITERATIONS

 HEAD/DRAWDOWN PRINTOUT FLAG = 0     TOTAL BUDGET PRINTOUT FLAG = 1
 CELL-BY-CELL FLOW TERM FLAG = 0
 REUSING PREVIOUS VALUES OF IOFLG

 SAVING SATURATED THICKNESS AND FLOW TERMS ON UNIT  333 FOR MT3DMS
 BY THE LINK-MT3DMS PACKAGE V6.3 AT TIME STEP    2, STRESS PERIOD    1

1
  VOLUMETRIC BUDGET FOR ENTIRE MODEL AT END OF TIME STEP  2 IN STRESS PERIOD   1
  ------------------------------------------------------------------------------

     CUMULATIVE VOLUMES      L**3       RATES FOR THIS TIME STEP      L**3/T
     ------------------                 ------------------------

           IN:                                      IN:
           ---                                      ---
             STORAGE =         222.3794               STORAGE =           0.1624
       CONSTANT HEAD =       1.5108E-03         CONSTANT HEAD =       1.3166E-06
                 MNW =         222.3908                   MNW =           0.1624

            TOTAL IN =         444.7717              TOTAL IN =           0.3248

          OUT:                                     OUT:
          ----                                     ----
             STORAGE =         222.3349               STORAGE =           0.1622
       CONSTANT HEAD =       1.4235E-03         CONSTANT HEAD =       9.9661E-07
                 MNW =         222.3908                   MNW =           0.1624

           TOTAL OUT =         444.7271             TOTAL OUT =           0.3246

            IN - OUT =       4.4586E-02              IN - OUT =       1.7589E-04

 PERCENT DISCREPANCY =           0.01     PERCENT DISCREPANCY =           0.05






          TIME SUMMARY AT END OF TIME STEP   2 IN STRESS PERIOD    1
                    SECONDS     MINUTES      HOURS       DAYS        YEARS
                    -----------------------------------------------------------
   TIME STEP LENGTH  689.71      11.495     0.19159     7.98279E-03 2.18557E-05
 STRESS PERIOD TIME  1316.7      21.945     0.36576     1.52399E-02 4.17245E-05
         TOTAL TIME  1316.7      21.945     0.36576     1.52399E-02 4.17245E-05
1
 
 SOLVING FOR HEAD 
     4 CALLS TO PCG ROUTINE FOR TIME STEP   3 IN STRESS PERIOD    1
    25 TOTAL ITERATIONS

 HEAD/DRAWDOWN PRINTOUT FLAG = 0     TOTAL BUDGET PRINTOUT FLAG = 1
 CELL-BY-CELL FLOW TERM FLAG = 0
 REUSING PREVIOUS VALUES OF IOFLG

 SAVING SATURATED THICKNESS AND FLOW TERMS ON UNIT  333 FOR MT3DMS
 BY THE LINK-MT3DMS PACKAGE V6.3 AT TIME STEP    3, STRESS PERIOD    1

1
  VOLUMETRIC BUDGET FOR ENTIRE MODEL AT END OF TIME STEP  3 IN STRESS PERIOD   1
  ------------------------------------------------------------------------------

     CUMULATIVE VOLUMES      L**3       RATES FOR THIS TIME STEP      L**3/T
     ------------------                 ------------------------

           IN:                                      IN:
           ---                                      ---
             STORAGE =         340.9372               STORAGE =           0.1563
       CONSTANT HEAD =       2.5822E-03         CONSTANT HEAD =       1.4121E-06
                 MNW =         340.8606                   MNW =           0.1562

            TOTAL IN =         681.8004              TOTAL IN =           0.3124

          OUT:                                     OUT:
          ----                                     ----
             STORAGE =         340.7524               STORAGE =           0.1561
       CONSTANT HEAD =       1.9322E-03         CONSTANT HEAD =       6.7043E-07
                 MNW =         340.8606                   MNW =           0.1562

           TOTAL OUT =         681.6150             TOTAL OUT =           0.3122

            IN - OUT =           0.1854              IN - OUT =       1.8561E-04

 PERCENT DISCREPANCY =           0.03     PERCENT DISCREPANCY =           0.06






          TIME SUMMARY AT END OF TIME STEP   3 IN STRESS PERIOD    1
                    SECONDS     MINUTES      HOURS       DAYS        YEARS
                    -----------------------------------------------------------
   TIME STEP LENGTH  758.68      12.645     0.21075     8.78107E-03 2.40413E-05
 STRESS PERIOD TIME  2075.4      34.590     0.57650     2.40209E-02 6.57658E-05
         TOTAL TIME  2075.4      34.590     0.57650     2.40209E-02 6.57658E-05
1
 
 SOLVING FOR HEAD 
     4 CALLS TO PCG ROUTINE FOR TIME STEP   4 IN STRESS PERIOD    1
    22 TOTAL ITERATIONS

 HEAD/DRAWDOWN PRINTOUT FLAG = 0     TOTAL BUDGET PRINTOUT FLAG = 1
 CELL-BY-CELL FLOW TERM FLAG = 0
 REUSING PREVIOUS VALUES OF IOFLG

 SAVING SATURATED THICKNESS AND FLOW TERMS ON UNIT  333 FOR MT3DMS
 BY THE LINK-MT3DMS PACKAGE V6.3 AT TIME STEP    4, STRESS PERIOD    1

1
  VOLUMETRIC BUDGET FOR ENTIRE MODEL AT END OF TIME STEP  4 IN STRESS PERIOD   1
  ------------------------------------------------------------------------------

     CUMULATIVE VOLUMES      L**3       RATES FOR THIS TIME STEP      L**3/T
     ------------------                 ------------------------

           IN:                                      IN:
           ---                                      ---
             STORAGE =         468.0527               STORAGE =           0.1523
       CONSTANT HEAD =       3.8390E-03         CONSTANT HEAD =       1.5060E-06
                 MNW =         467.8375                   MNW =           0.1521

            TOTAL IN =         935.8940              TOTAL IN =           0.3045

          OUT:                                     OUT:
          ----                                     ----
             STORAGE =         467.7082               STORAGE =           0.1521
       CONSTANT HEAD =       2.7005E-03         CONSTANT HEAD =       9.2070E-07
                 MNW =         467.8375                   MNW =           0.1521

           TOTAL OUT =         935.5484             TOTAL OUT =           0.3043

            IN - OUT =           0.3456              IN - OUT =       1.9208E-04

 PERCENT DISCREPANCY =           0.04     PERCENT DISCREPANCY =           0.06






          TIME SUMMARY AT END OF TIME STEP   4 IN STRESS PERIOD    1
                    SECONDS     MINUTES      HOURS       DAYS        YEARS
                    -----------------------------------------------------------
   TIME STEP LENGTH  834.55      13.909     0.23182     9.65918E-03 2.64454E-05
 STRESS PERIOD TIME  2910.0      48.499     0.80832     3.36801E-02 9.22112E-05
         TOTAL TIME  2910.0      48.499     0.80832     3.36801E-02 9.22112E-05
1
 
 SOLVING FOR HEAD 
     4 CALLS TO PCG ROUTINE FOR TIME STEP   5 IN STRESS PERIOD    1
    20 TOTAL ITERATIONS

 HEAD/DRAWDOWN PRINTOUT FLAG = 0     TOTAL BUDGET PRINTOUT FLAG = 1
 CELL-BY-CELL FLOW TERM FLAG = 0
 REUSING PREVIOUS VALUES OF IOFLG

 SAVING SATURATED THICKNESS AND FLOW TERMS ON UNIT  333 FOR MT3DMS
 BY THE LINK-MT3DMS PACKAGE V6.3 AT TIME STEP    5, STRESS PERIOD    1

1
  VOLUMETRIC BUDGET FOR ENTIRE MODEL AT END OF TIME STEP  5 IN STRESS PERIOD   1
  ------------------------------------------------------------------------------

     CUMULATIVE VOLUMES      L**3       RATES FOR THIS TIME STEP      L**3/T
     ------------------                 ------------------------

           IN:                                      IN:
           ---                                      ---
             STORAGE =         605.1256               STORAGE =           0.1493
       CONSTANT HEAD =       5.3071E-03         CONSTANT HEAD =       1.5992E-06
                 MNW =         604.7859                   MNW =           0.1492

            TOTAL IN =        1209.9169              TOTAL IN =           0.2985

          OUT:                                     OUT:
          ----                                     ----
             STORAGE =         604.6745               STORAGE =           0.1492
       CONSTANT HEAD =       3.2953E-03         CONSTANT HEAD =       6.4790E-07
                 MNW =         604.7859                   MNW =           0.1492

           TOTAL OUT =        1209.4637             TOTAL OUT =           0.2984

            IN - OUT =           0.4531              IN - OUT =       1.1706E-04

 PERCENT DISCREPANCY =           0.04     PERCENT DISCREPANCY =           0.04






          TIME SUMMARY AT END OF TIME STEP   5 IN STRESS PERIOD    1
                    SECONDS     MINUTES      HOURS       DAYS        YEARS
                    -----------------------------------------------------------
   TIME STEP LENGTH  918.01      15.300     0.25500     1.06251E-02 2.90899E-05
 STRESS PERIOD TIME  3828.0      63.800      1.0633     4.43052E-02 1.21301E-04
         TOTAL TIME  3828.0      63.800      1.0633     4.43052E-02 1.21301E-04
1
 
 SOLVING FOR HEAD 
     4 CALLS TO PCG ROUTINE FOR TIME STEP   6 IN STRESS PERIOD    1
    20 TOTAL ITERATIONS

 HEAD/DRAWDOWN PRINTOUT FLAG = 0     TOTAL BUDGET PRINTOUT FLAG = 1
 CELL-BY-CELL FLOW TERM FLAG = 0
 REUSING PREVIOUS VALUES OF IOFLG

 SAVING SATURATED THICKNESS AND FLOW TERMS ON UNIT  333 FOR MT3DMS
 BY THE LINK-MT3DMS PACKAGE V6.3 AT TIME STEP    6, STRESS PERIOD    1

1
  VOLUMETRIC BUDGET FOR ENTIRE MODEL AT END OF TIME STEP  6 IN STRESS PERIOD   1
  ------------------------------------------------------------------------------

     CUMULATIVE VOLUMES      L**3       RATES FOR THIS TIME STEP      L**3/T
     ------------------                 ------------------------

           IN:                                      IN:
           ---                                      ---
             STORAGE =         753.5013               STORAGE =           0.1469
       CONSTANT HEAD =       7.7026E-03         CONSTANT HEAD =       2.3723E-06
                 MNW =         753.0178                   MNW =           0.1468

            TOTAL IN =        1506.5269              TOTAL IN =           0.2937

          OUT:                                     OUT:
          ----                                     ----
             STORAGE =         752.9130               STORAGE =           0.1468
       CONSTANT HEAD =       3.5247E-03         CONSTANT HEAD =       2.2718E-07
                 MNW =         753.0178                   MNW =           0.1468

           TOTAL OUT =        1505.9342             TOTAL OUT =           0.2936

            IN - OUT =           0.5927              IN - OUT =       1.3810E-04

 PERCENT DISCREPANCY =           0.04     PERCENT DISCREPANCY =           0.05






          TIME SUMMARY AT END OF TIME STEP   6 IN STRESS PERIOD    1
                    SECONDS     MINUTES      HOURS       DAYS        YEARS
                    -----------------------------------------------------------
   TIME STEP LENGTH  1009.8      16.830     0.28050     1.16876E-02 3.19989E-05
 STRESS PERIOD TIME  4837.8      80.630      1.3438     5.59928E-02 1.53300E-04
         TOTAL TIME  4837.8      80.630      1.3438     5.59928E-02 1.53300E-04
1
 
 SOLVING FOR HEAD 
     4 CALLS TO PCG ROUTINE FOR TIME STEP   7 IN STRESS PERIOD    1
    20 TOTAL ITERATIONS

 HEAD/DRAWDOWN PRINTOUT FLAG = 0     TOTAL BUDGET PRINTOUT FLAG = 1
 CELL-BY-CELL FLOW TERM FLAG = 0
 REUSING PREVIOUS VALUES OF IOFLG

 SAVING SATURATED THICKNESS AND FLOW TERMS ON UNIT  333 FOR MT3DMS
 BY THE LINK-MT3DMS PACKAGE V6.3 AT TIME STEP    7, STRESS PERIOD    1

1
  VOLUMETRIC BUDGET FOR ENTIRE MODEL AT END OF TIME STEP  7 IN STRESS PERIOD   1
  ------------------------------------------------------------------------------

     CUMULATIVE VOLUMES      L**3       RATES FOR THIS TIME STEP      L**3/T
     ------------------                 ------------------------

           IN:                                      IN:
           ---                                      ---
             STORAGE =         914.4543               STORAGE =           0.1449
       CONSTANT HEAD =       1.1242E-02         CONSTANT HEAD =       3.1861E-06
                 MNW =         913.8397                   MNW =           0.1448

            TOTAL IN =        1828.3052              TOTAL IN =           0.2897

          OUT:                                     OUT:
          ----                                     ----
             STORAGE =         913.7625               STORAGE =           0.1448
       CONSTANT HEAD =       4.0174E-03         CONSTANT HEAD =       4.4350E-07
                 MNW =         913.8397                   MNW =           0.1448

           TOTAL OUT =        1827.6062             TOTAL OUT =           0.2896

            IN - OUT =           0.6990              IN - OUT =       9.5844E-05

 PERCENT DISCREPANCY =           0.04     PERCENT DISCREPANCY =           0.03






          TIME SUMMARY AT END OF TIME STEP   7 IN STRESS PERIOD    1
                    SECONDS     MINUTES      HOURS       DAYS        YEARS
                    -----------------------------------------------------------
   TIME STEP LENGTH  1110.8      18.513     0.30855     1.28564E-02 3.51988E-05
 STRESS PERIOD TIME  5948.6      99.143      1.6524     6.88492E-02 1.88499E-04
         TOTAL TIME  5948.6      99.143      1.6524     6.88492E-02 1.88499E-04
1
 
 SOLVING FOR HEAD 
     4 CALLS TO PCG ROUTINE FOR TIME STEP   8 IN STRESS PERIOD    1
    20 TOTAL ITERATIONS

 HEAD/DRAWDOWN PRINTOUT FLAG = 0     TOTAL BUDGET PRINTOUT FLAG = 1
 CELL-BY-CELL FLOW TERM FLAG = 0
 REUSING PREVIOUS VALUES OF IOFLG

 SAVING SATURATED THICKNESS AND FLOW TERMS ON UNIT  333 FOR MT3DMS
 BY THE LINK-MT3DMS PACKAGE V6.3 AT TIME STEP    8, STRESS PERIOD    1

1
  VOLUMETRIC BUDGET FOR ENTIRE MODEL AT END OF TIME STEP  8 IN STRESS PERIOD   1
  ------------------------------------------------------------------------------

     CUMULATIVE VOLUMES      L**3       RATES FOR THIS TIME STEP      L**3/T
     ------------------                 ------------------------

           IN:                                      IN:
           ---                                      ---
             STORAGE =        1089.3519               STORAGE =           0.1431
       CONSTANT HEAD =       1.3368E-02         CONSTANT HEAD =       1.7399E-06
                 MNW =        1088.6068                   MNW =           0.1430

            TOTAL IN =        2177.9722              TOTAL IN =           0.2862

          OUT:                                     OUT:
          ----                                     ----
             STORAGE =        1088.5537               STORAGE =           0.1431
       CONSTANT HEAD =       4.4739E-03         CONSTANT HEAD =       3.7360E-07
                 MNW =        1088.6068                   MNW =           0.1430

           TOTAL OUT =        2177.1650             TOTAL OUT =           0.2861

            IN - OUT =           0.8071              IN - OUT =       8.8483E-05

 PERCENT DISCREPANCY =           0.04     PERCENT DISCREPANCY =           0.03






          TIME SUMMARY AT END OF TIME STEP   8 IN STRESS PERIOD    1
                    SECONDS     MINUTES      HOURS       DAYS        YEARS
                    -----------------------------------------------------------
   TIME STEP LENGTH  1221.9      20.364     0.33941     1.41420E-02 3.87187E-05
 STRESS PERIOD TIME  7170.4      119.51      1.9918     8.29912E-02 2.27218E-04
         TOTAL TIME  7170.4      119.51      1.9918     8.29912E-02 2.27218E-04
1
 
 SOLVING FOR HEAD 
     4 CALLS TO PCG ROUTINE FOR TIME STEP   9 IN STRESS PERIOD    1
    17 TOTAL ITERATIONS

 HEAD/DRAWDOWN PRINTOUT FLAG = 0     TOTAL BUDGET PRINTOUT FLAG = 1
 CELL-BY-CELL FLOW TERM FLAG = 0
 REUSING PREVIOUS VALUES OF IOFLG

 SAVING SATURATED THICKNESS AND FLOW TERMS ON UNIT  333 FOR MT3DMS
 BY THE LINK-MT3DMS PACKAGE V6.3 AT TIME STEP    9, STRESS PERIOD    1

1
  VOLUMETRIC BUDGET FOR ENTIRE MODEL AT END OF TIME STEP  9 IN STRESS PERIOD   1
  ------------------------------------------------------------------------------

     CUMULATIVE VOLUMES      L**3       RATES FOR THIS TIME STEP      L**3/T
     ------------------                 ------------------------

           IN:                                      IN:
           ---                                      ---
             STORAGE =        1279.6910               STORAGE =           0.1416
       CONSTANT HEAD =       1.4802E-02         CONSTANT HEAD =       1.0675E-06
                 MNW =        1278.7303                   MNW =           0.1415

            TOTAL IN =        2558.4363              TOTAL IN =           0.2831

          OUT:                                     OUT:
          ----                                     ----
             STORAGE =        1278.7759               STORAGE =           0.1415
       CONSTANT HEAD =       4.8145E-03         CONSTANT HEAD =       2.5347E-07
                 MNW =        1278.7303                   MNW =           0.1415

           TOTAL OUT =        2557.5110             TOTAL OUT =           0.2830

            IN - OUT =           0.9253              IN - OUT =       8.7798E-05

 PERCENT DISCREPANCY =           0.04     PERCENT DISCREPANCY =           0.03






          TIME SUMMARY AT END OF TIME STEP   9 IN STRESS PERIOD    1
                    SECONDS     MINUTES      HOURS       DAYS        YEARS
                    -----------------------------------------------------------
   TIME STEP LENGTH  1344.1      22.401     0.37335     1.55562E-02 4.25906E-05
 STRESS PERIOD TIME  8514.5      141.91      2.3651     9.85474E-02 2.69808E-04
         TOTAL TIME  8514.5      141.91      2.3651     9.85474E-02 2.69808E-04
1
 
 SOLVING FOR HEAD 
     4 CALLS TO PCG ROUTINE FOR TIME STEP  10 IN STRESS PERIOD    1
    17 TOTAL ITERATIONS

 HEAD/DRAWDOWN PRINTOUT FLAG = 0     TOTAL BUDGET PRINTOUT FLAG = 1
 CELL-BY-CELL FLOW TERM FLAG = 0
 REUSING PREVIOUS VALUES OF IOFLG

 SAVING SATURATED THICKNESS AND FLOW TERMS ON UNIT  333 FOR MT3DMS
 BY THE LINK-MT3DMS PACKAGE V6.3 AT TIME STEP   10, STRESS PERIOD    1

1
  VOLUMETRIC BUDGET FOR ENTIRE MODEL AT END OF TIME STEP 10 IN STRESS PERIOD   1
  ------------------------------------------------------------------------------

     CUMULATIVE VOLUMES      L**3       RATES FOR THIS TIME STEP      L**3/T
     ------------------                 ------------------------

           IN:                                      IN:
           ---                                      ---
             STORAGE =        1486.9584               STORAGE =           0.1402
       CONSTANT HEAD =       1.6615E-02         CONSTANT HEAD =       1.2262E-06
                 MNW =        1485.7788                   MNW =           0.1400

            TOTAL IN =        2972.7539              TOTAL IN =           0.2802

          OUT:                                     OUT:
          ----                                     ----
             STORAGE =        1485.9355               STORAGE =           0.1401
       CONSTANT HEAD =       5.2733E-03         CONSTANT HEAD =       3.1028E-07
                 MNW =        1485.7788                   MNW =           0.1400

           TOTAL OUT =        2971.7197             TOTAL OUT =           0.2802

            IN - OUT =           1.0342              IN - OUT =       7.3731E-05

 PERCENT DISCREPANCY =           0.03     PERCENT DISCREPANCY =           0.03






          TIME SUMMARY AT END OF TIME STEP  10 IN STRESS PERIOD    1
                    SECONDS     MINUTES      HOURS       DAYS        YEARS
                    -----------------------------------------------------------
   TIME STEP LENGTH  1478.5      24.641     0.41068     1.71118E-02 4.68496E-05
 STRESS PERIOD TIME  9993.0      166.55      2.7758     0.11566     3.16658E-04
         TOTAL TIME  9993.0      166.55      2.7758     0.11566     3.16658E-04
1
 
 SOLVING FOR HEAD 
     4 CALLS TO PCG ROUTINE FOR TIME STEP  11 IN STRESS PERIOD    1
    17 TOTAL ITERATIONS

 HEAD/DRAWDOWN PRINTOUT FLAG = 0     TOTAL BUDGET PRINTOUT FLAG = 1
 CELL-BY-CELL FLOW TERM FLAG = 0
 REUSING PREVIOUS VALUES OF IOFLG

 SAVING SATURATED THICKNESS AND FLOW TERMS ON UNIT  333 FOR MT3DMS
 BY THE LINK-MT3DMS PACKAGE V6.3 AT TIME STEP   11, STRESS PERIOD    1

1
  VOLUMETRIC BUDGET FOR ENTIRE MODEL AT END OF TIME STEP 11 IN STRESS PERIOD   1
  ------------------------------------------------------------------------------

     CUMULATIVE VOLUMES      L**3       RATES FOR THIS TIME STEP      L**3/T
     ------------------                 ------------------------

           IN:                                      IN:
           ---                                      ---
             STORAGE =        1712.8469               STORAGE =           0.1389
       CONSTANT HEAD =       1.7378E-02         CONSTANT HEAD =       4.6877E-07
                 MNW =        1711.4265                   MNW =           0.1387

            TOTAL IN =        3424.2908              TOTAL IN =           0.2776

          OUT:                                     OUT:
          ----                                     ----
             STORAGE =        1711.6995               STORAGE =           0.1388
       CONSTANT HEAD =       7.1998E-03         CONSTANT HEAD =       1.1846E-06
                 MNW =        1711.4265                   MNW =           0.1387

           TOTAL OUT =        3423.1331             TOTAL OUT =           0.2776

            IN - OUT =           1.1577              IN - OUT =       7.5966E-05

 PERCENT DISCREPANCY =           0.03     PERCENT DISCREPANCY =           0.03






          TIME SUMMARY AT END OF TIME STEP  11 IN STRESS PERIOD    1
                    SECONDS     MINUTES      HOURS       DAYS        YEARS
                    -----------------------------------------------------------
   TIME STEP LENGTH  1626.3      27.105     0.45175     1.88230E-02 5.15346E-05
 STRESS PERIOD TIME  11619.      193.65      3.2276     0.13448     3.68192E-04
         TOTAL TIME  11619.      193.65      3.2276     0.13448     3.68192E-04
1
 
 SOLVING FOR HEAD 
     3 CALLS TO PCG ROUTINE FOR TIME STEP  12 IN STRESS PERIOD    1
    15 TOTAL ITERATIONS

 HEAD/DRAWDOWN PRINTOUT FLAG = 0     TOTAL BUDGET PRINTOUT FLAG = 1
 CELL-BY-CELL FLOW TERM FLAG = 0
 REUSING PREVIOUS VALUES OF IOFLG

 SAVING SATURATED THICKNESS AND FLOW TERMS ON UNIT  333 FOR MT3DMS
 BY THE LINK-MT3DMS PACKAGE V6.3 AT TIME STEP   12, STRESS PERIOD    1

1
  VOLUMETRIC BUDGET FOR ENTIRE MODEL AT END OF TIME STEP 12 IN STRESS PERIOD   1
  ------------------------------------------------------------------------------

     CUMULATIVE VOLUMES      L**3       RATES FOR THIS TIME STEP      L**3/T
     ------------------                 ------------------------

           IN:                                      IN:
           ---                                      ---
             STORAGE =        1959.2585               STORAGE =           0.1377
       CONSTANT HEAD =       1.9838E-02         CONSTANT HEAD =       1.3755E-06
                 MNW =        1957.4772                   MNW =           0.1375

            TOTAL IN =        3916.7556              TOTAL IN =           0.2753

          OUT:                                     OUT:
          ----                                     ----
             STORAGE =        1957.9160               STORAGE =           0.1376
       CONSTANT HEAD =       8.6909E-03         CONSTANT HEAD =       8.3348E-07
                 MNW =        1957.4772                   MNW =           0.1375

           TOTAL OUT =        3915.4019             TOTAL OUT =           0.2752

            IN - OUT =           1.3538              IN - OUT =       1.0964E-04

 PERCENT DISCREPANCY =           0.03     PERCENT DISCREPANCY =           0.04






          TIME SUMMARY AT END OF TIME STEP  12 IN STRESS PERIOD    1
                    SECONDS     MINUTES      HOURS       DAYS        YEARS
                    -----------------------------------------------------------
   TIME STEP LENGTH  1788.9      29.816     0.49693     2.07053E-02 5.66881E-05
 STRESS PERIOD TIME  13408.      223.47      3.7245     0.15519     4.24880E-04
         TOTAL TIME  13408.      223.47      3.7245     0.15519     4.24880E-04
1
 
 SOLVING FOR HEAD 
     3 CALLS TO PCG ROUTINE FOR TIME STEP  13 IN STRESS PERIOD    1
    15 TOTAL ITERATIONS

 HEAD/DRAWDOWN PRINTOUT FLAG = 0     TOTAL BUDGET PRINTOUT FLAG = 1
 CELL-BY-CELL FLOW TERM FLAG = 0
 REUSING PREVIOUS VALUES OF IOFLG

 SAVING SATURATED THICKNESS AND FLOW TERMS ON UNIT  333 FOR MT3DMS
 BY THE LINK-MT3DMS PACKAGE V6.3 AT TIME STEP   13, STRESS PERIOD    1

1
  VOLUMETRIC BUDGET FOR ENTIRE MODEL AT END OF TIME STEP 13 IN STRESS PERIOD   1
  ------------------------------------------------------------------------------

     CUMULATIVE VOLUMES      L**3       RATES FOR THIS TIME STEP      L**3/T
     ------------------                 ------------------------

           IN:                                      IN:
           ---                                      ---
             STORAGE =        2228.0876               STORAGE =           0.1366
       CONSTANT HEAD =       2.4138E-02         CONSTANT HEAD =       2.1849E-06
                 MNW =        2225.9160                   MNW =           0.1364

            TOTAL IN =        4454.0278              TOTAL IN =           0.2730

          OUT:                                     OUT:
          ----                                     ----
             STORAGE =        2226.5374               STORAGE =           0.1365
       CONSTANT HEAD =       1.0343E-02         CONSTANT HEAD =       8.3955E-07
                 MNW =        2225.9160                   MNW =           0.1364

           TOTAL OUT =        4452.4639             TOTAL OUT =           0.2729

            IN - OUT =           1.5640              IN - OUT =       1.0687E-04

 PERCENT DISCREPANCY =           0.04     PERCENT DISCREPANCY =           0.04






          TIME SUMMARY AT END OF TIME STEP  13 IN STRESS PERIOD    1
                    SECONDS     MINUTES      HOURS       DAYS        YEARS
                    -----------------------------------------------------------
   TIME STEP LENGTH  1967.8      32.797     0.54662     2.27758E-02 6.23569E-05
 STRESS PERIOD TIME  15376.      256.27      4.2711     0.17796     4.87237E-04
         TOTAL TIME  15376.      256.27      4.2711     0.17796     4.87237E-04
1
 
 SOLVING FOR HEAD 
     3 CALLS TO PCG ROUTINE FOR TIME STEP  14 IN STRESS PERIOD    1
    16 TOTAL ITERATIONS

 HEAD/DRAWDOWN PRINTOUT FLAG = 0     TOTAL BUDGET PRINTOUT FLAG = 1
 CELL-BY-CELL FLOW TERM FLAG = 0
 REUSING PREVIOUS VALUES OF IOFLG

 SAVING SATURATED THICKNESS AND FLOW TERMS ON UNIT  333 FOR MT3DMS
 BY THE LINK-MT3DMS PACKAGE V6.3 AT TIME STEP   14, STRESS PERIOD    1

1
  VOLUMETRIC BUDGET FOR ENTIRE MODEL AT END OF TIME STEP 14 IN STRESS PERIOD   1
  ------------------------------------------------------------------------------

     CUMULATIVE VOLUMES      L**3       RATES FOR THIS TIME STEP      L**3/T
     ------------------                 ------------------------

           IN:                                      IN:
           ---                                      ---
             STORAGE =        2521.4302               STORAGE =           0.1355
       CONSTANT HEAD =       3.4348E-02         CONSTANT HEAD =       4.7170E-06
                 MNW =        2518.8979                   MNW =           0.1354

            TOTAL IN =        5040.3623              TOTAL IN =           0.2709

          OUT:                                     OUT:
          ----                                     ----
             STORAGE =        2519.7019               STORAGE =           0.1354
       CONSTANT HEAD =       1.0775E-02         CONSTANT HEAD =       1.9943E-07
                 MNW =        2518.8979                   MNW =           0.1354

           TOTAL OUT =        5038.6108             TOTAL OUT =           0.2708

            IN - OUT =           1.7515              IN - OUT =       8.6755E-05

 PERCENT DISCREPANCY =           0.03     PERCENT DISCREPANCY =           0.03






          TIME SUMMARY AT END OF TIME STEP  14 IN STRESS PERIOD    1
                    SECONDS     MINUTES      HOURS       DAYS        YEARS
                    -----------------------------------------------------------
   TIME STEP LENGTH  2164.6      36.077     0.60128     2.50534E-02 6.85926E-05
 STRESS PERIOD TIME  17541.      292.34      4.8724     0.20302     5.55830E-04
         TOTAL TIME  17541.      292.34      4.8724     0.20302     5.55830E-04
1
 
 SOLVING FOR HEAD 
     3 CALLS TO PCG ROUTINE FOR TIME STEP  15 IN STRESS PERIOD    1
    16 TOTAL ITERATIONS

 HEAD/DRAWDOWN PRINTOUT FLAG = 0     TOTAL BUDGET PRINTOUT FLAG = 1
 CELL-BY-CELL FLOW TERM FLAG = 0
 REUSING PREVIOUS VALUES OF IOFLG

 SAVING SATURATED THICKNESS AND FLOW TERMS ON UNIT  333 FOR MT3DMS
 BY THE LINK-MT3DMS PACKAGE V6.3 AT TIME STEP   15, STRESS PERIOD    1

1
  VOLUMETRIC BUDGET FOR ENTIRE MODEL AT END OF TIME STEP 15 IN STRESS PERIOD   1
  ------------------------------------------------------------------------------

     CUMULATIVE VOLUMES      L**3       RATES FOR THIS TIME STEP      L**3/T
     ------------------                 ------------------------

           IN:                                      IN:
           ---                                      ---
             STORAGE =        2841.6765               STORAGE =           0.1345
       CONSTANT HEAD =       5.9644E-02         CONSTANT HEAD =       1.0624E-05
                 MNW =        2838.7749                   MNW =           0.1343

            TOTAL IN =        5680.5112              TOTAL IN =           0.2688

          OUT:                                     OUT:
          ----                                     ----
             STORAGE =        2839.7815               STORAGE =           0.1344
       CONSTANT HEAD =       1.1205E-02         CONSTANT HEAD =       1.8073E-07
                 MNW =        2838.7749                   MNW =           0.1343

           TOTAL OUT =        5678.5674             TOTAL OUT =           0.2688

            IN - OUT =           1.9438              IN - OUT =       8.0496E-05

 PERCENT DISCREPANCY =           0.03     PERCENT DISCREPANCY =           0.03






          TIME SUMMARY AT END OF TIME STEP  15 IN STRESS PERIOD    1
                    SECONDS     MINUTES      HOURS       DAYS        YEARS
                    -----------------------------------------------------------
   TIME STEP LENGTH  2381.1      39.685     0.66141     2.75588E-02 7.54518E-05
 STRESS PERIOD TIME  19922.      332.03      5.5338     0.23058     6.31282E-04
         TOTAL TIME  19922.      332.03      5.5338     0.23058     6.31282E-04
1
 
 SOLVING FOR HEAD 
     3 CALLS TO PCG ROUTINE FOR TIME STEP  16 IN STRESS PERIOD    1
    15 TOTAL ITERATIONS

 HEAD/DRAWDOWN PRINTOUT FLAG = 0     TOTAL BUDGET PRINTOUT FLAG = 1
 CELL-BY-CELL FLOW TERM FLAG = 0
 REUSING PREVIOUS VALUES OF IOFLG

 SAVING SATURATED THICKNESS AND FLOW TERMS ON UNIT  333 FOR MT3DMS
 BY THE LINK-MT3DMS PACKAGE V6.3 AT TIME STEP   16, STRESS PERIOD    1

1
  VOLUMETRIC BUDGET FOR ENTIRE MODEL AT END OF TIME STEP 16 IN STRESS PERIOD   1
  ------------------------------------------------------------------------------

     CUMULATIVE VOLUMES      L**3       RATES FOR THIS TIME STEP      L**3/T
     ------------------                 ------------------------

           IN:                                      IN:
           ---                                      ---
             STORAGE =        3191.3992               STORAGE =           0.1335
       CONSTANT HEAD =           0.1208         CONSTANT HEAD =       2.3335E-05
                 MNW =        3188.1169                   MNW =           0.1334

            TOTAL IN =        6379.6367              TOTAL IN =           0.2669

          OUT:                                     OUT:
          ----                                     ----
             STORAGE =        3189.3423               STORAGE =           0.1335
       CONSTANT HEAD =       1.1614E-02         CONSTANT HEAD =       1.5619E-07
                 MNW =        3188.1169                   MNW =           0.1334

           TOTAL OUT =        6377.4707             TOTAL OUT =           0.2668

            IN - OUT =           2.1660              IN - OUT =       8.4937E-05

 PERCENT DISCREPANCY =           0.03     PERCENT DISCREPANCY =           0.03






          TIME SUMMARY AT END OF TIME STEP  16 IN STRESS PERIOD    1
                    SECONDS     MINUTES      HOURS       DAYS        YEARS
                    -----------------------------------------------------------
   TIME STEP LENGTH  2619.2      43.653     0.72755     3.03147E-02 8.29970E-05
 STRESS PERIOD TIME  22541.      375.68      6.2614     0.26089     7.14279E-04
         TOTAL TIME  22541.      375.68      6.2614     0.26089     7.14279E-04
1
 
 SOLVING FOR HEAD 
     3 CALLS TO PCG ROUTINE FOR TIME STEP  17 IN STRESS PERIOD    1
    16 TOTAL ITERATIONS

 HEAD/DRAWDOWN PRINTOUT FLAG = 0     TOTAL BUDGET PRINTOUT FLAG = 1
 CELL-BY-CELL FLOW TERM FLAG = 0
 REUSING PREVIOUS VALUES OF IOFLG

 SAVING SATURATED THICKNESS AND FLOW TERMS ON UNIT  333 FOR MT3DMS
 BY THE LINK-MT3DMS PACKAGE V6.3 AT TIME STEP   17, STRESS PERIOD    1

1
  VOLUMETRIC BUDGET FOR ENTIRE MODEL AT END OF TIME STEP 17 IN STRESS PERIOD   1
  ------------------------------------------------------------------------------

     CUMULATIVE VOLUMES      L**3       RATES FOR THIS TIME STEP      L**3/T
     ------------------                 ------------------------

           IN:                                      IN:
           ---                                      ---
             STORAGE =        3573.3220               STORAGE =           0.1326
       CONSTANT HEAD =           0.2650         CONSTANT HEAD =       5.0054E-05
                 MNW =        3569.7334                   MNW =           0.1325

            TOTAL IN =        7143.3203              TOTAL IN =           0.2651

          OUT:                                     OUT:
          ----                                     ----
             STORAGE =        3571.1897               STORAGE =           0.1325
       CONSTANT HEAD =       1.2000E-02         CONSTANT HEAD =       1.3401E-07
                 MNW =        3569.7334                   MNW =           0.1325

           TOTAL OUT =        7140.9351             TOTAL OUT =           0.2650

            IN - OUT =           2.3853              IN - OUT =       7.6115E-05

 PERCENT DISCREPANCY =           0.03     PERCENT DISCREPANCY =           0.03






          TIME SUMMARY AT END OF TIME STEP  17 IN STRESS PERIOD    1
                    SECONDS     MINUTES      HOURS       DAYS        YEARS
                    -----------------------------------------------------------
   TIME STEP LENGTH  2881.1      48.018     0.80031     3.33461E-02 9.12967E-05
 STRESS PERIOD TIME  25422.      423.70      7.0617     0.29424     8.05575E-04
         TOTAL TIME  25422.      423.70      7.0617     0.29424     8.05575E-04
1
 
 SOLVING FOR HEAD 
     3 CALLS TO PCG ROUTINE FOR TIME STEP  18 IN STRESS PERIOD    1
    15 TOTAL ITERATIONS

 HEAD/DRAWDOWN PRINTOUT FLAG = 0     TOTAL BUDGET PRINTOUT FLAG = 1
 CELL-BY-CELL FLOW TERM FLAG = 0
 REUSING PREVIOUS VALUES OF IOFLG

 SAVING SATURATED THICKNESS AND FLOW TERMS ON UNIT  333 FOR MT3DMS
 BY THE LINK-MT3DMS PACKAGE V6.3 AT TIME STEP   18, STRESS PERIOD    1

1
  VOLUMETRIC BUDGET FOR ENTIRE MODEL AT END OF TIME STEP 18 IN STRESS PERIOD   1
  ------------------------------------------------------------------------------

     CUMULATIVE VOLUMES      L**3       RATES FOR THIS TIME STEP      L**3/T
     ------------------                 ------------------------

           IN:                                      IN:
           ---                                      ---
             STORAGE =        3990.4670               STORAGE =           0.1316
       CONSTANT HEAD =           0.5771         CONSTANT HEAD =       9.8476E-05
                 MNW =        3986.6970                   MNW =           0.1316

            TOTAL IN =        7977.7412              TOTAL IN =           0.2633

          OUT:                                     OUT:
          ----                                     ----
             STORAGE =        3988.4150               STORAGE =           0.1316
       CONSTANT HEAD =       1.2329E-02         CONSTANT HEAD =       1.0371E-07
                 MNW =        3986.6970                   MNW =           0.1316

           TOTAL OUT =        7975.1245             TOTAL OUT =           0.2632

            IN - OUT =           2.6167              IN - OUT =       7.3016E-05

 PERCENT DISCREPANCY =           0.03     PERCENT DISCREPANCY =           0.03






          TIME SUMMARY AT END OF TIME STEP  18 IN STRESS PERIOD    1
                    SECONDS     MINUTES      HOURS       DAYS        YEARS
                    -----------------------------------------------------------
   TIME STEP LENGTH  3169.2      52.820     0.88034     3.66807E-02 1.00426E-04
 STRESS PERIOD TIME  28591.      476.52      7.9420     0.33092     9.06002E-04
         TOTAL TIME  28591.      476.52      7.9420     0.33092     9.06002E-04
1
 
 SOLVING FOR HEAD 
     3 CALLS TO PCG ROUTINE FOR TIME STEP  19 IN STRESS PERIOD    1
    15 TOTAL ITERATIONS

 HEAD/DRAWDOWN PRINTOUT FLAG = 0     TOTAL BUDGET PRINTOUT FLAG = 1
 CELL-BY-CELL FLOW TERM FLAG = 0
 REUSING PREVIOUS VALUES OF IOFLG

 SAVING SATURATED THICKNESS AND FLOW TERMS ON UNIT  333 FOR MT3DMS
 BY THE LINK-MT3DMS PACKAGE V6.3 AT TIME STEP   19, STRESS PERIOD    1

1
  VOLUMETRIC BUDGET FOR ENTIRE MODEL AT END OF TIME STEP 19 IN STRESS PERIOD   1
  ------------------------------------------------------------------------------

     CUMULATIVE VOLUMES      L**3       RATES FOR THIS TIME STEP      L**3/T
     ------------------                 ------------------------

           IN:                                      IN:
           ---                                      ---
             STORAGE =        4446.0376               STORAGE =           0.1307
       CONSTANT HEAD =           1.2190         CONSTANT HEAD =       1.8415E-04
                 MNW =        4442.3701                   MNW =           0.1307

            TOTAL IN =        8889.6270              TOTAL IN =           0.2616

          OUT:                                     OUT:
          ----                                     ----
             STORAGE =        4444.3726               STORAGE =           0.1308
       CONSTANT HEAD =       1.2758E-02         CONSTANT HEAD =       1.2306E-07
                 MNW =        4442.3701                   MNW =           0.1307

           TOTAL OUT =        8886.7559             TOTAL OUT =           0.2615

            IN - OUT =           2.8711              IN - OUT =       7.3075E-05

 PERCENT DISCREPANCY =           0.03     PERCENT DISCREPANCY =           0.03






          TIME SUMMARY AT END OF TIME STEP  19 IN STRESS PERIOD    1
                    SECONDS     MINUTES      HOURS       DAYS        YEARS
                    -----------------------------------------------------------
   TIME STEP LENGTH  3486.1      58.102     0.96837     4.03488E-02 1.10469E-04
 STRESS PERIOD TIME  32077.      534.62      8.9104     0.37127     1.01647E-03
         TOTAL TIME  32077.      534.62      8.9104     0.37127     1.01647E-03
1
 
 SOLVING FOR HEAD 
     3 CALLS TO PCG ROUTINE FOR TIME STEP  20 IN STRESS PERIOD    1
    15 TOTAL ITERATIONS

 HEAD/DRAWDOWN PRINTOUT FLAG = 0     TOTAL BUDGET PRINTOUT FLAG = 1
 CELL-BY-CELL FLOW TERM FLAG = 0
 REUSING PREVIOUS VALUES OF IOFLG

 SAVING SATURATED THICKNESS AND FLOW TERMS ON UNIT  333 FOR MT3DMS
 BY THE LINK-MT3DMS PACKAGE V6.3 AT TIME STEP   20, STRESS PERIOD    1

1
  VOLUMETRIC BUDGET FOR ENTIRE MODEL AT END OF TIME STEP 20 IN STRESS PERIOD   1
  ------------------------------------------------------------------------------

     CUMULATIVE VOLUMES      L**3       RATES FOR THIS TIME STEP      L**3/T
     ------------------                 ------------------------

           IN:                                      IN:
           ---                                      ---
             STORAGE =        4943.3892               STORAGE =           0.1297
       CONSTANT HEAD =           2.4847         CONSTANT HEAD =       3.3006E-04
                 MNW =        4940.4302                   MNW =           0.1299

            TOTAL IN =        9886.3037              TOTAL IN =           0.2599

          OUT:                                     OUT:
          ----                                     ----
             STORAGE =        4942.7427               STORAGE =           0.1300
       CONSTANT HEAD =       1.3576E-02         CONSTANT HEAD =       2.1324E-07
                 MNW =        4940.4302                   MNW =           0.1299

           TOTAL OUT =        9883.1865             TOTAL OUT =           0.2598

            IN - OUT =           3.1172              IN - OUT =       6.4284E-05

 PERCENT DISCREPANCY =           0.03     PERCENT DISCREPANCY =           0.02






          TIME SUMMARY AT END OF TIME STEP  20 IN STRESS PERIOD    1
                    SECONDS     MINUTES      HOURS       DAYS        YEARS
                    -----------------------------------------------------------
   TIME STEP LENGTH  3834.8      63.913      1.0652     4.43837E-02 1.21516E-04
 STRESS PERIOD TIME  35912.      598.54      9.9756     0.41565     1.13799E-03
         TOTAL TIME  35912.      598.54      9.9756     0.41565     1.13799E-03
1
 
 SOLVING FOR HEAD 
     3 CALLS TO PCG ROUTINE FOR TIME STEP  21 IN STRESS PERIOD    1
    15 TOTAL ITERATIONS

 HEAD/DRAWDOWN PRINTOUT FLAG = 0     TOTAL BUDGET PRINTOUT FLAG = 1
 CELL-BY-CELL FLOW TERM FLAG = 0
 REUSING PREVIOUS VALUES OF IOFLG

 SAVING SATURATED THICKNESS AND FLOW TERMS ON UNIT  333 FOR MT3DMS
 BY THE LINK-MT3DMS PACKAGE V6.3 AT TIME STEP   21, STRESS PERIOD    1

1
  VOLUMETRIC BUDGET FOR ENTIRE MODEL AT END OF TIME STEP 21 IN STRESS PERIOD   1
  ------------------------------------------------------------------------------

     CUMULATIVE VOLUMES      L**3       RATES FOR THIS TIME STEP      L**3/T
     ------------------                 ------------------------

           IN:                                      IN:
           ---                                      ---
             STORAGE =        5486.0864               STORAGE =           0.1287
       CONSTANT HEAD =           4.8819         CONSTANT HEAD =       5.6829E-04
                 MNW =        5484.8999                   MNW =           0.1291

            TOTAL IN =       10975.8682              TOTAL IN =           0.2583

          OUT:                                     OUT:
          ----                                     ----
             STORAGE =        5487.5620               STORAGE =           0.1292
       CONSTANT HEAD =       1.4003E-02         CONSTANT HEAD =       1.0131E-07
                 MNW =        5484.8999                   MNW =           0.1291

           TOTAL OUT =       10972.4756             TOTAL OUT =           0.2582

            IN - OUT =           3.3926              IN - OUT =       6.5118E-05

 PERCENT DISCREPANCY =           0.03     PERCENT DISCREPANCY =           0.03






          TIME SUMMARY AT END OF TIME STEP  21 IN STRESS PERIOD    1
                    SECONDS     MINUTES      HOURS       DAYS        YEARS
                    -----------------------------------------------------------
   TIME STEP LENGTH  4218.2      70.304      1.1717     4.88221E-02 1.33668E-04
 STRESS PERIOD TIME  40130.      668.84      11.147     0.46447     1.27165E-03
         TOTAL TIME  40130.      668.84      11.147     0.46447     1.27165E-03
1
 
 SOLVING FOR HEAD 
     3 CALLS TO PCG ROUTINE FOR TIME STEP  22 IN STRESS PERIOD    1
    15 TOTAL ITERATIONS

 HEAD/DRAWDOWN PRINTOUT FLAG = 0     TOTAL BUDGET PRINTOUT FLAG = 1
 CELL-BY-CELL FLOW TERM FLAG = 0
 REUSING PREVIOUS VALUES OF IOFLG

 SAVING SATURATED THICKNESS AND FLOW TERMS ON UNIT  333 FOR MT3DMS
 BY THE LINK-MT3DMS PACKAGE V6.3 AT TIME STEP   22, STRESS PERIOD    1

1
  VOLUMETRIC BUDGET FOR ENTIRE MODEL AT END OF TIME STEP 22 IN STRESS PERIOD   1
  ------------------------------------------------------------------------------

     CUMULATIVE VOLUMES      L**3       RATES FOR THIS TIME STEP      L**3/T
     ------------------                 ------------------------

           IN:                                      IN:
           ---                                      ---
             STORAGE =        6077.6997               STORAGE =           0.1275
       CONSTANT HEAD =           9.2356         CONSTANT HEAD =       9.3830E-04
                 MNW =        6080.1875                   MNW =           0.1283

            TOTAL IN =       12167.1230              TOTAL IN =           0.2567

          OUT:                                     OUT:
          ----                                     ----
             STORAGE =        6083.2305               STORAGE =           0.1284
       CONSTANT HEAD =       1.5026E-02         CONSTANT HEAD =       2.2056E-07
                 MNW =        6080.1875                   MNW =           0.1283

           TOTAL OUT =       12163.4326             TOTAL OUT =           0.2567

            IN - OUT =           3.6904              IN - OUT =       6.4164E-05

 PERCENT DISCREPANCY =           0.03     PERCENT DISCREPANCY =           0.02






          TIME SUMMARY AT END OF TIME STEP  22 IN STRESS PERIOD    1
                    SECONDS     MINUTES      HOURS       DAYS        YEARS
                    -----------------------------------------------------------
   TIME STEP LENGTH  4640.0      77.334      1.2889     5.37043E-02 1.47034E-04
 STRESS PERIOD TIME  44770.      746.17      12.436     0.51818     1.41869E-03
         TOTAL TIME  44770.      746.17      12.436     0.51818     1.41869E-03
1
 
 SOLVING FOR HEAD 
     3 CALLS TO PCG ROUTINE FOR TIME STEP  23 IN STRESS PERIOD    1
    15 TOTAL ITERATIONS

 HEAD/DRAWDOWN PRINTOUT FLAG = 0     TOTAL BUDGET PRINTOUT FLAG = 1
 CELL-BY-CELL FLOW TERM FLAG = 0
 REUSING PREVIOUS VALUES OF IOFLG

 SAVING SATURATED THICKNESS AND FLOW TERMS ON UNIT  333 FOR MT3DMS
 BY THE LINK-MT3DMS PACKAGE V6.3 AT TIME STEP   23, STRESS PERIOD    1

1
  VOLUMETRIC BUDGET FOR ENTIRE MODEL AT END OF TIME STEP 23 IN STRESS PERIOD   1
  ------------------------------------------------------------------------------

     CUMULATIVE VOLUMES      L**3       RATES FOR THIS TIME STEP      L**3/T
     ------------------                 ------------------------

           IN:                                      IN:
           ---                                      ---
             STORAGE =        6721.7446               STORAGE =           0.1262
       CONSTANT HEAD =          16.8401         CONSTANT HEAD =       1.4899E-03
                 MNW =        6731.1133                   MNW =           0.1275

            TOTAL IN =       13469.6982              TOTAL IN =           0.2552

          OUT:                                     OUT:
          ----                                     ----
             STORAGE =        6734.5752               STORAGE =           0.1276
       CONSTANT HEAD =       1.6013E-02         CONSTANT HEAD =       1.9335E-07
                 MNW =        6731.1133                   MNW =           0.1275

           TOTAL OUT =       13465.7041             TOTAL OUT =           0.2551

            IN - OUT =           3.9941              IN - OUT =       5.9456E-05

 PERCENT DISCREPANCY =           0.03     PERCENT DISCREPANCY =           0.02






          TIME SUMMARY AT END OF TIME STEP  23 IN STRESS PERIOD    1
                    SECONDS     MINUTES      HOURS       DAYS        YEARS
                    -----------------------------------------------------------
   TIME STEP LENGTH  5104.1      85.068      1.4178     5.90747E-02 1.61738E-04
 STRESS PERIOD TIME  49874.      831.24      13.854     0.57725     1.58043E-03
         TOTAL TIME  49874.      831.24      13.854     0.57725     1.58043E-03
1
 
 SOLVING FOR HEAD 
     3 CALLS TO PCG ROUTINE FOR TIME STEP  24 IN STRESS PERIOD    1
    15 TOTAL ITERATIONS

 HEAD/DRAWDOWN PRINTOUT FLAG = 0     TOTAL BUDGET PRINTOUT FLAG = 1
 CELL-BY-CELL FLOW TERM FLAG = 0
 REUSING PREVIOUS VALUES OF IOFLG

 SAVING SATURATED THICKNESS AND FLOW TERMS ON UNIT  333 FOR MT3DMS
 BY THE LINK-MT3DMS PACKAGE V6.3 AT TIME STEP   24, STRESS PERIOD    1

1
  VOLUMETRIC BUDGET FOR ENTIRE MODEL AT END OF TIME STEP 24 IN STRESS PERIOD   1
  ------------------------------------------------------------------------------

     CUMULATIVE VOLUMES      L**3       RATES FOR THIS TIME STEP      L**3/T
     ------------------                 ------------------------

           IN:                                      IN:
           ---                                      ---
             STORAGE =        7421.5786               STORAGE =           0.1246
       CONSTANT HEAD =          29.6546         CONSTANT HEAD =       2.2824E-03
                 MNW =        7442.9551                   MNW =           0.1268

            TOTAL IN =       14894.1885              TOTAL IN =           0.2537

          OUT:                                     OUT:
          ----                                     ----
             STORAGE =        7446.8809               STORAGE =           0.1269
       CONSTANT HEAD =       1.8832E-02         CONSTANT HEAD =       5.0214E-07
                 MNW =        7442.9551                   MNW =           0.1268

           TOTAL OUT =       14889.8545             TOTAL OUT =           0.2537

            IN - OUT =           4.3340              IN - OUT =       6.0499E-05

 PERCENT DISCREPANCY =           0.03     PERCENT DISCREPANCY =           0.02






          TIME SUMMARY AT END OF TIME STEP  24 IN STRESS PERIOD    1
                    SECONDS     MINUTES      HOURS       DAYS        YEARS
                    -----------------------------------------------------------
   TIME STEP LENGTH  5614.5      93.574      1.5596     6.49822E-02 1.77911E-04
 STRESS PERIOD TIME  55489.      924.82      15.414     0.64223     1.75834E-03
         TOTAL TIME  55489.      924.82      15.414     0.64223     1.75834E-03
1
 
 SOLVING FOR HEAD 
     3 CALLS TO PCG ROUTINE FOR TIME STEP  25 IN STRESS PERIOD    1
    15 TOTAL ITERATIONS

 HEAD/DRAWDOWN PRINTOUT FLAG = 0     TOTAL BUDGET PRINTOUT FLAG = 1
 CELL-BY-CELL FLOW TERM FLAG = 0
 REUSING PREVIOUS VALUES OF IOFLG

 SAVING SATURATED THICKNESS AND FLOW TERMS ON UNIT  333 FOR MT3DMS
 BY THE LINK-MT3DMS PACKAGE V6.3 AT TIME STEP   25, STRESS PERIOD    1

1
  VOLUMETRIC BUDGET FOR ENTIRE MODEL AT END OF TIME STEP 25 IN STRESS PERIOD   1
  ------------------------------------------------------------------------------

     CUMULATIVE VOLUMES      L**3       RATES FOR THIS TIME STEP      L**3/T
     ------------------                 ------------------------

           IN:                                      IN:
           ---                                      ---
             STORAGE =        8180.1455               STORAGE =           0.1228
       CONSTANT HEAD =          50.5187         CONSTANT HEAD =       3.3783E-03
                 MNW =        8221.4922                   MNW =           0.1261

            TOTAL IN =       16452.1562              TOTAL IN =           0.2523

          OUT:                                     OUT:
          ----                                     ----
             STORAGE =        8225.9268               STORAGE =           0.1261
       CONSTANT HEAD =       2.4984E-02         CONSTANT HEAD =       9.9602E-07
                 MNW =        8221.4922                   MNW =           0.1261

           TOTAL OUT =       16447.4434             TOTAL OUT =           0.2522

            IN - OUT =           4.7129              IN - OUT =       6.1363E-05

 PERCENT DISCREPANCY =           0.03     PERCENT DISCREPANCY =           0.02






          TIME SUMMARY AT END OF TIME STEP  25 IN STRESS PERIOD    1
                    SECONDS     MINUTES      HOURS       DAYS        YEARS
                    -----------------------------------------------------------
   TIME STEP LENGTH  6175.9      102.93      1.7155     7.14804E-02 1.95703E-04
 STRESS PERIOD TIME  61665.      1027.7      17.129     0.71371     1.95404E-03
         TOTAL TIME  61665.      1027.7      17.129     0.71371     1.95404E-03
1
 
 SOLVING FOR HEAD 
     3 CALLS TO PCG ROUTINE FOR TIME STEP  26 IN STRESS PERIOD    1
    15 TOTAL ITERATIONS

 HEAD/DRAWDOWN PRINTOUT FLAG = 0     TOTAL BUDGET PRINTOUT FLAG = 1
 CELL-BY-CELL FLOW TERM FLAG = 0
 REUSING PREVIOUS VALUES OF IOFLG

 SAVING SATURATED THICKNESS AND FLOW TERMS ON UNIT  333 FOR MT3DMS
 BY THE LINK-MT3DMS PACKAGE V6.3 AT TIME STEP   26, STRESS PERIOD    1

1
  VOLUMETRIC BUDGET FOR ENTIRE MODEL AT END OF TIME STEP 26 IN STRESS PERIOD   1
  ------------------------------------------------------------------------------

     CUMULATIVE VOLUMES      L**3       RATES FOR THIS TIME STEP      L**3/T
     ------------------                 ------------------------

           IN:                                      IN:
           ---                                      ---
             STORAGE =        8999.7461               STORAGE =           0.1206
       CONSTANT HEAD =          83.4170         CONSTANT HEAD =       4.8426E-03
                 MNW =        9073.0508                   MNW =           0.1253

            TOTAL IN =       18156.2148              TOTAL IN =           0.2508

          OUT:                                     OUT:
          ----                                     ----
             STORAGE =        9078.0469               STORAGE =           0.1254
       CONSTANT HEAD =       3.9689E-02         CONSTANT HEAD =       2.1646E-06
                 MNW =        9073.0508                   MNW =           0.1253

           TOTAL OUT =       18151.1367             TOTAL OUT =           0.2508

            IN - OUT =           5.0781              IN - OUT =       5.3585E-05

 PERCENT DISCREPANCY =           0.03     PERCENT DISCREPANCY =           0.02






          TIME SUMMARY AT END OF TIME STEP  26 IN STRESS PERIOD    1
                    SECONDS     MINUTES      HOURS       DAYS        YEARS
                    -----------------------------------------------------------
   TIME STEP LENGTH  6793.5      113.22      1.8871     7.86284E-02 2.15273E-04
 STRESS PERIOD TIME  68458.      1141.0      19.016     0.79234     2.16931E-03
         TOTAL TIME  68458.      1141.0      19.016     0.79234     2.16931E-03
1
 
 SOLVING FOR HEAD 
     4 CALLS TO PCG ROUTINE FOR TIME STEP  27 IN STRESS PERIOD    1
    14 TOTAL ITERATIONS

 HEAD/DRAWDOWN PRINTOUT FLAG = 0     TOTAL BUDGET PRINTOUT FLAG = 1
 CELL-BY-CELL FLOW TERM FLAG = 0
 REUSING PREVIOUS VALUES OF IOFLG

 SAVING SATURATED THICKNESS AND FLOW TERMS ON UNIT  333 FOR MT3DMS
 BY THE LINK-MT3DMS PACKAGE V6.3 AT TIME STEP   27, STRESS PERIOD    1

1
  VOLUMETRIC BUDGET FOR ENTIRE MODEL AT END OF TIME STEP 27 IN STRESS PERIOD   1
  ------------------------------------------------------------------------------

     CUMULATIVE VOLUMES      L**3       RATES FOR THIS TIME STEP      L**3/T
     ------------------                 ------------------------

           IN:                                      IN:
           ---                                      ---
             STORAGE =        9882.0020               STORAGE =           0.1181
       CONSTANT HEAD =         133.7591         CONSTANT HEAD =       6.7367E-03
                 MNW =       10004.3555                   MNW =           0.1246

            TOTAL IN =       20020.1172              TOTAL IN =           0.2494

          OUT:                                     OUT:
          ----                                     ----
             STORAGE =       10010.1416               STORAGE =           0.1247
       CONSTANT HEAD =       7.5011E-02         CONSTANT HEAD =       4.7268E-06
                 MNW =       10004.3555                   MNW =           0.1246

           TOTAL OUT =       20014.5723             TOTAL OUT =           0.2494

            IN - OUT =           5.5449              IN - OUT =       6.2644E-05

 PERCENT DISCREPANCY =           0.03     PERCENT DISCREPANCY =           0.03






          TIME SUMMARY AT END OF TIME STEP  27 IN STRESS PERIOD    1
                    SECONDS     MINUTES      HOURS       DAYS        YEARS
                    -----------------------------------------------------------
   TIME STEP LENGTH  7472.8      124.55      2.0758     8.64913E-02 2.36800E-04
 STRESS PERIOD TIME  75931.      1265.5      21.092     0.87883     2.40611E-03
         TOTAL TIME  75931.      1265.5      21.092     0.87883     2.40611E-03
1
 
 SOLVING FOR HEAD 
     3 CALLS TO PCG ROUTINE FOR TIME STEP  28 IN STRESS PERIOD    1
    16 TOTAL ITERATIONS

 HEAD/DRAWDOWN PRINTOUT FLAG = 0     TOTAL BUDGET PRINTOUT FLAG = 1
 CELL-BY-CELL FLOW TERM FLAG = 0
 REUSING PREVIOUS VALUES OF IOFLG

 SAVING SATURATED THICKNESS AND FLOW TERMS ON UNIT  333 FOR MT3DMS
 BY THE LINK-MT3DMS PACKAGE V6.3 AT TIME STEP   28, STRESS PERIOD    1

1
  VOLUMETRIC BUDGET FOR ENTIRE MODEL AT END OF TIME STEP 28 IN STRESS PERIOD   1
  ------------------------------------------------------------------------------

     CUMULATIVE VOLUMES      L**3       RATES FOR THIS TIME STEP      L**3/T
     ------------------                 ------------------------

           IN:                                      IN:
           ---                                      ---
             STORAGE =       10827.1816               STORAGE =           0.1150
       CONSTANT HEAD =         208.6788         CONSTANT HEAD =       9.1142E-03
                 MNW =       11023.3916                   MNW =           0.1240

            TOTAL IN =       22059.2520              TOTAL IN =           0.2481

          OUT:                                     OUT:
          ----                                     ----
             STORAGE =       11029.7344               STORAGE =           0.1240
       CONSTANT HEAD =           0.1567         CONSTANT HEAD =       9.9327E-06
                 MNW =       11023.3916                   MNW =           0.1240

           TOTAL OUT =       22053.2832             TOTAL OUT =           0.2480

            IN - OUT =           5.9688              IN - OUT =       5.1737E-05

 PERCENT DISCREPANCY =           0.03     PERCENT DISCREPANCY =           0.02






          TIME SUMMARY AT END OF TIME STEP  28 IN STRESS PERIOD    1
                    SECONDS     MINUTES      HOURS       DAYS        YEARS
                    -----------------------------------------------------------
   TIME STEP LENGTH  8220.1      137.00      2.2834     9.51404E-02 2.60480E-04
 STRESS PERIOD TIME  84151.      1402.5      23.375     0.97397     2.66659E-03
         TOTAL TIME  84151.      1402.5      23.375     0.97397     2.66659E-03
1
 
 SOLVING FOR HEAD 
     3 CALLS TO PCG ROUTINE FOR TIME STEP  29 IN STRESS PERIOD    1
    15 TOTAL ITERATIONS

 HEAD/DRAWDOWN PRINTOUT FLAG = 0     TOTAL BUDGET PRINTOUT FLAG = 1
 CELL-BY-CELL FLOW TERM FLAG = 0
 REUSING PREVIOUS VALUES OF IOFLG

 SAVING SATURATED THICKNESS AND FLOW TERMS ON UNIT  333 FOR MT3DMS
 BY THE LINK-MT3DMS PACKAGE V6.3 AT TIME STEP   29, STRESS PERIOD    1

1
  VOLUMETRIC BUDGET FOR ENTIRE MODEL AT END OF TIME STEP 29 IN STRESS PERIOD   1
  ------------------------------------------------------------------------------

     CUMULATIVE VOLUMES      L**3       RATES FOR THIS TIME STEP      L**3/T
     ------------------                 ------------------------

           IN:                                      IN:
           ---                                      ---
             STORAGE =       11834.7188               STORAGE =           0.1114
       CONSTANT HEAD =         317.3073         CONSTANT HEAD =       1.2014E-02
                 MNW =       12138.2656                   MNW =           0.1233

            TOTAL IN =       24290.2910              TOTAL IN =           0.2467

          OUT:                                     OUT:
          ----                                     ----
             STORAGE =       12145.1963               STORAGE =           0.1234
       CONSTANT HEAD =           0.3379         CONSTANT HEAD =       2.0041E-05
                 MNW =       12138.2656                   MNW =           0.1233

           TOTAL OUT =       24283.7988             TOTAL OUT =           0.2467

            IN - OUT =           6.4922              IN - OUT =       5.7772E-05

 PERCENT DISCREPANCY =           0.03     PERCENT DISCREPANCY =           0.02






          TIME SUMMARY AT END OF TIME STEP  29 IN STRESS PERIOD    1
                    SECONDS     MINUTES      HOURS       DAYS        YEARS
                    -----------------------------------------------------------
   TIME STEP LENGTH  9042.1      150.70      2.5117     0.10465     2.86528E-04
 STRESS PERIOD TIME  93193.      1553.2      25.887      1.0786     2.95312E-03
         TOTAL TIME  93193.      1553.2      25.887      1.0786     2.95312E-03
1
 
 SOLVING FOR HEAD 
     4 CALLS TO PCG ROUTINE FOR TIME STEP  30 IN STRESS PERIOD    1
    14 TOTAL ITERATIONS

 HEAD/DRAWDOWN PRINTOUT FLAG = 0     TOTAL BUDGET PRINTOUT FLAG = 1
 CELL-BY-CELL FLOW TERM FLAG = 0
 REUSING PREVIOUS VALUES OF IOFLG

 SAVING SATURATED THICKNESS AND FLOW TERMS ON UNIT  333 FOR MT3DMS
 BY THE LINK-MT3DMS PACKAGE V6.3 AT TIME STEP   30, STRESS PERIOD    1

1
  VOLUMETRIC BUDGET FOR ENTIRE MODEL AT END OF TIME STEP 30 IN STRESS PERIOD   1
  ------------------------------------------------------------------------------

     CUMULATIVE VOLUMES      L**3       RATES FOR THIS TIME STEP      L**3/T
     ------------------                 ------------------------

           IN:                                      IN:
           ---                                      ---
             STORAGE =       12902.1963               STORAGE =           0.1073
       CONSTANT HEAD =         471.0411         CONSTANT HEAD =       1.5456E-02
                 MNW =       13357.8506                   MNW =           0.1226

            TOTAL IN =       26731.0879              TOTAL IN =           0.2454

          OUT:                                     OUT:
          ----                                     ----
             STORAGE =       13365.4287               STORAGE =           0.1227
       CONSTANT HEAD =           0.7248         CONSTANT HEAD =       3.8898E-05
                 MNW =       13357.8506                   MNW =           0.1226

           TOTAL OUT =       26724.0039             TOTAL OUT =           0.2453

            IN - OUT =           7.0840              IN - OUT =       5.9545E-05

 PERCENT DISCREPANCY =           0.03     PERCENT DISCREPANCY =           0.02






          TIME SUMMARY AT END OF TIME STEP  30 IN STRESS PERIOD    1
                    SECONDS     MINUTES      HOURS       DAYS        YEARS
                    -----------------------------------------------------------
   TIME STEP LENGTH  9946.4      165.77      2.7629     0.11512     3.15181E-04
 STRESS PERIOD TIME 1.03140E+05  1719.0      28.650      1.1937     3.26830E-03
         TOTAL TIME 1.03140E+05  1719.0      28.650      1.1937     3.26830E-03
1
 
 SOLVING FOR HEAD 
     3 CALLS TO PCG ROUTINE FOR TIME STEP  31 IN STRESS PERIOD    1
    15 TOTAL ITERATIONS

 HEAD/DRAWDOWN PRINTOUT FLAG = 0     TOTAL BUDGET PRINTOUT FLAG = 1
 CELL-BY-CELL FLOW TERM FLAG = 0
 REUSING PREVIOUS VALUES OF IOFLG

 SAVING SATURATED THICKNESS AND FLOW TERMS ON UNIT  333 FOR MT3DMS
 BY THE LINK-MT3DMS PACKAGE V6.3 AT TIME STEP   31, STRESS PERIOD    1

1
  VOLUMETRIC BUDGET FOR ENTIRE MODEL AT END OF TIME STEP 31 IN STRESS PERIOD   1
  ------------------------------------------------------------------------------

     CUMULATIVE VOLUMES      L**3       RATES FOR THIS TIME STEP      L**3/T
     ------------------                 ------------------------

           IN:                                      IN:
           ---                                      ---
             STORAGE =       14026.0205               STORAGE =           0.1027
       CONSTANT HEAD =         683.7287         CONSTANT HEAD =       1.9440E-02
[...]
 BY THE LINK-MT3DMS PACKAGE V6.3 AT TIME STEP   92, STRESS PERIOD    1

1
  VOLUMETRIC BUDGET FOR ENTIRE MODEL AT END OF TIME STEP 92 IN STRESS PERIOD   1
  ------------------------------------------------------------------------------

     CUMULATIVE VOLUMES      L**3       RATES FOR THIS TIME STEP      L**3/T
     ------------------                 ------------------------

           IN:                                      IN:
           ---                                      ---
             STORAGE =       32888.8945               STORAGE =       2.7032E-06
       CONSTANT HEAD =     4308740.0000         CONSTANT HEAD =           0.1074
                 MNW =     4339702.0000                   MNW =           0.1075

            TOTAL IN =     8681331.0000              TOTAL IN =           0.2149

          OUT:                                     OUT:
          ----                                     ----
             STORAGE =      128651.7969               STORAGE =       4.4162E-06
       CONSTANT HEAD =     4212426.0000         CONSTANT HEAD =           0.1074
                 MNW =     4339702.0000                   MNW =           0.1075

           TOTAL OUT =     8680780.0000             TOTAL OUT =           0.2149

            IN - OUT =         551.0000              IN - OUT =       3.0547E-06

 PERCENT DISCREPANCY =           0.01     PERCENT DISCREPANCY =           0.00






          TIME SUMMARY AT END OF TIME STEP  92 IN STRESS PERIOD    1
                    SECONDS     MINUTES      HOURS       DAYS        YEARS
                    -----------------------------------------------------------
   TIME STEP LENGTH 3.66447E+06  61075.      1017.9      42.413     0.11612    
 STRESS PERIOD TIME 4.03029E+07 6.71715E+05  11195.      466.47      1.2771    
         TOTAL TIME 4.03029E+07 6.71715E+05  11195.      466.47      1.2771    
1
 
 SOLVING FOR HEAD 
     3 CALLS TO PCG ROUTINE FOR TIME STEP  93 IN STRESS PERIOD    1
     7 TOTAL ITERATIONS

 HEAD/DRAWDOWN PRINTOUT FLAG = 0     TOTAL BUDGET PRINTOUT FLAG = 1
 CELL-BY-CELL FLOW TERM FLAG = 0
 REUSING PREVIOUS VALUES OF IOFLG

 SAVING SATURATED THICKNESS AND FLOW TERMS ON UNIT  333 FOR MT3DMS
 BY THE LINK-MT3DMS PACKAGE V6.3 AT TIME STEP   93, STRESS PERIOD    1

1
  VOLUMETRIC BUDGET FOR ENTIRE MODEL AT END OF TIME STEP 93 IN STRESS PERIOD   1
  ------------------------------------------------------------------------------

     CUMULATIVE VOLUMES      L**3       RATES FOR THIS TIME STEP      L**3/T
     ------------------                 ------------------------

           IN:                                      IN:
           ---                                      ---
             STORAGE =       32892.7500               STORAGE =       9.5655E-07
       CONSTANT HEAD =     4741869.5000         CONSTANT HEAD =           0.1075
                 MNW =     4772697.5000                   MNW =           0.1074

            TOTAL IN =     9547460.0000              TOTAL IN =           0.2149

          OUT:                                     OUT:
          ----                                     ----
             STORAGE =      128668.4453               STORAGE =       4.1310E-06
       CONSTANT HEAD =     4645547.5000         CONSTANT HEAD =           0.1074
                 MNW =     4772697.5000                   MNW =           0.1074

           TOTAL OUT =     9546913.0000             TOTAL OUT =           0.2149

            IN - OUT =         547.0000              IN - OUT =      -1.2368E-06

 PERCENT DISCREPANCY =           0.01     PERCENT DISCREPANCY =           0.00






          TIME SUMMARY AT END OF TIME STEP  93 IN STRESS PERIOD    1
                    SECONDS     MINUTES      HOURS       DAYS        YEARS
                    -----------------------------------------------------------
   TIME STEP LENGTH 4.03092E+06  67182.      1119.7      46.654     0.12773    
 STRESS PERIOD TIME 4.43338E+07 7.38897E+05  12315.      513.12      1.4049    
         TOTAL TIME 4.43338E+07 7.38897E+05  12315.      513.12      1.4049    
1
 
 SOLVING FOR HEAD 
     2 CALLS TO PCG ROUTINE FOR TIME STEP  94 IN STRESS PERIOD    1
     3 TOTAL ITERATIONS

 HEAD/DRAWDOWN PRINTOUT FLAG = 0     TOTAL BUDGET PRINTOUT FLAG = 1
 CELL-BY-CELL FLOW TERM FLAG = 0
 REUSING PREVIOUS VALUES OF IOFLG

 SAVING SATURATED THICKNESS AND FLOW TERMS ON UNIT  333 FOR MT3DMS
 BY THE LINK-MT3DMS PACKAGE V6.3 AT TIME STEP   94, STRESS PERIOD    1

1
  VOLUMETRIC BUDGET FOR ENTIRE MODEL AT END OF TIME STEP 94 IN STRESS PERIOD   1
  ------------------------------------------------------------------------------

     CUMULATIVE VOLUMES      L**3       RATES FOR THIS TIME STEP      L**3/T
     ------------------                 ------------------------

           IN:                                      IN:
           ---                                      ---
             STORAGE =       32899.7227               STORAGE =       1.5722E-06
       CONSTANT HEAD =     5218330.5000         CONSTANT HEAD =           0.1075
                 MNW =     5247872.0000                   MNW =           0.1072

            TOTAL IN =    10499102.0000              TOTAL IN =           0.2146

          OUT:                                     OUT:
          ----                                     ----
             STORAGE =      128684.1484               STORAGE =       3.5406E-06
       CONSTANT HEAD =     5121989.0000         CONSTANT HEAD =           0.1075
                 MNW =     5247872.0000                   MNW =           0.1072

           TOTAL OUT =    10498545.0000             TOTAL OUT =           0.2146

            IN - OUT =         557.0000              IN - OUT =       2.4289E-06

 PERCENT DISCREPANCY =           0.01     PERCENT DISCREPANCY =           0.00






          TIME SUMMARY AT END OF TIME STEP  94 IN STRESS PERIOD    1
                    SECONDS     MINUTES      HOURS       DAYS        YEARS
                    -----------------------------------------------------------
   TIME STEP LENGTH 4.43401E+06  73900.      1231.7      51.320     0.14051    
 STRESS PERIOD TIME 4.87678E+07 8.12797E+05  13547.      564.44      1.5454    
         TOTAL TIME 4.87678E+07 8.12797E+05  13547.      564.44      1.5454    
1
 
 SOLVING FOR HEAD 
     3 CALLS TO PCG ROUTINE FOR TIME STEP  95 IN STRESS PERIOD    1
    13 TOTAL ITERATIONS

 HEAD/DRAWDOWN PRINTOUT FLAG = 0     TOTAL BUDGET PRINTOUT FLAG = 1
 CELL-BY-CELL FLOW TERM FLAG = 0
 REUSING PREVIOUS VALUES OF IOFLG

 SAVING SATURATED THICKNESS AND FLOW TERMS ON UNIT  333 FOR MT3DMS
 BY THE LINK-MT3DMS PACKAGE V6.3 AT TIME STEP   95, STRESS PERIOD    1

1
  VOLUMETRIC BUDGET FOR ENTIRE MODEL AT END OF TIME STEP 95 IN STRESS PERIOD   1
  ------------------------------------------------------------------------------

     CUMULATIVE VOLUMES      L**3       RATES FOR THIS TIME STEP      L**3/T
     ------------------                 ------------------------

           IN:                                      IN:
           ---                                      ---
             STORAGE =       32907.2500               STORAGE =       1.5432E-06
       CONSTANT HEAD =     5742304.5000         CONSTANT HEAD =           0.1074
                 MNW =     5771970.0000                   MNW =           0.1075

            TOTAL IN =    11547182.0000              TOTAL IN =           0.2149

          OUT:                                     OUT:
          ----                                     ----
             STORAGE =      128697.9141               STORAGE =       2.8221E-06
       CONSTANT HEAD =     5645936.0000         CONSTANT HEAD =           0.1074
                 MNW =     5771970.0000                   MNW =           0.1075

           TOTAL OUT =    11546604.0000             TOTAL OUT =           0.2149

            IN - OUT =         578.0000              IN - OUT =       4.3213E-06

 PERCENT DISCREPANCY =           0.01     PERCENT DISCREPANCY =           0.00






          TIME SUMMARY AT END OF TIME STEP  95 IN STRESS PERIOD    1
                    SECONDS     MINUTES      HOURS       DAYS        YEARS
                    -----------------------------------------------------------
   TIME STEP LENGTH 4.87741E+06  81290.      1354.8      56.452     0.15456    
 STRESS PERIOD TIME 5.36452E+07 8.94087E+05  14901.      620.89      1.6999    
         TOTAL TIME 5.36452E+07 8.94087E+05  14901.      620.89      1.6999    
1
 
 SOLVING FOR HEAD 
     3 CALLS TO PCG ROUTINE FOR TIME STEP  96 IN STRESS PERIOD    1
     8 TOTAL ITERATIONS

 HEAD/DRAWDOWN PRINTOUT FLAG = 0     TOTAL BUDGET PRINTOUT FLAG = 1
 CELL-BY-CELL FLOW TERM FLAG = 0
 REUSING PREVIOUS VALUES OF IOFLG

 SAVING SATURATED THICKNESS AND FLOW TERMS ON UNIT  333 FOR MT3DMS
 BY THE LINK-MT3DMS PACKAGE V6.3 AT TIME STEP   96, STRESS PERIOD    1

1
  VOLUMETRIC BUDGET FOR ENTIRE MODEL AT END OF TIME STEP 96 IN STRESS PERIOD   1
  ------------------------------------------------------------------------------

     CUMULATIVE VOLUMES      L**3       RATES FOR THIS TIME STEP      L**3/T
     ------------------                 ------------------------

           IN:                                      IN:
           ---                                      ---
             STORAGE =       32931.1367               STORAGE =       4.4522E-06
       CONSTANT HEAD =     6318690.0000         CONSTANT HEAD =           0.1074
                 MNW =     6348505.0000                   MNW =           0.1075

            TOTAL IN =    12700126.0000              TOTAL IN =           0.2149

          OUT:                                     OUT:
          ----                                     ----
             STORAGE =      128702.7344               STORAGE =       8.9862E-07
       CONSTANT HEAD =     6222281.0000         CONSTANT HEAD =           0.1074
                 MNW =     6348505.0000                   MNW =           0.1075

           TOTAL OUT =    12699489.0000             TOTAL OUT =           0.2149

            IN - OUT =         637.0000              IN - OUT =       1.1086E-05

 PERCENT DISCREPANCY =           0.01     PERCENT DISCREPANCY =           0.01






          TIME SUMMARY AT END OF TIME STEP  96 IN STRESS PERIOD    1
                    SECONDS     MINUTES      HOURS       DAYS        YEARS
                    -----------------------------------------------------------
   TIME STEP LENGTH 5.36515E+06  89419.      1490.3      62.097     0.17001    
 STRESS PERIOD TIME 5.90104E+07 9.83506E+05  16392.      682.99      1.8699    
         TOTAL TIME 5.90104E+07 9.83506E+05  16392.      682.99      1.8699    
1
 
 SOLVING FOR HEAD 
     7 CALLS TO PCG ROUTINE FOR TIME STEP  97 IN STRESS PERIOD    1
    19 TOTAL ITERATIONS

 HEAD/DRAWDOWN PRINTOUT FLAG = 0     TOTAL BUDGET PRINTOUT FLAG = 1
 CELL-BY-CELL FLOW TERM FLAG = 0
 REUSING PREVIOUS VALUES OF IOFLG

 SAVING SATURATED THICKNESS AND FLOW TERMS ON UNIT  333 FOR MT3DMS
 BY THE LINK-MT3DMS PACKAGE V6.3 AT TIME STEP   97, STRESS PERIOD    1

1
  VOLUMETRIC BUDGET FOR ENTIRE MODEL AT END OF TIME STEP 97 IN STRESS PERIOD   1
  ------------------------------------------------------------------------------

     CUMULATIVE VOLUMES      L**3       RATES FOR THIS TIME STEP      L**3/T
     ------------------                 ------------------------

           IN:                                      IN:
           ---                                      ---
             STORAGE =       32932.3828               STORAGE =       2.1125E-07
       CONSTANT HEAD =     6952723.5000         CONSTANT HEAD =           0.1074
                 MNW =     6982676.5000                   MNW =           0.1075

            TOTAL IN =    13968332.0000              TOTAL IN =           0.2149

          OUT:                                     OUT:
          ----                                     ----
             STORAGE =      128706.7344               STORAGE =       6.7839E-07
       CONSTANT HEAD =     6856285.0000         CONSTANT HEAD =           0.1074
                 MNW =     6982676.5000                   MNW =           0.1075

           TOTAL OUT =    13967668.0000             TOTAL OUT =           0.2149

            IN - OUT =         664.0000              IN - OUT =       4.5449E-06

 PERCENT DISCREPANCY =           0.00     PERCENT DISCREPANCY =           0.00






          TIME SUMMARY AT END OF TIME STEP  97 IN STRESS PERIOD    1
                    SECONDS     MINUTES      HOURS       DAYS        YEARS
                    -----------------------------------------------------------
   TIME STEP LENGTH 5.90167E+06  98361.      1639.4      68.306     0.18701    
 STRESS PERIOD TIME 6.49121E+07 1.08187E+06  18031.      751.30      2.0569    
         TOTAL TIME 6.49121E+07 1.08187E+06  18031.      751.30      2.0569    
1
 
 SOLVING FOR HEAD 
     1 CALLS TO PCG ROUTINE FOR TIME STEP  98 IN STRESS PERIOD    1
     1 TOTAL ITERATIONS

 HEAD/DRAWDOWN PRINTOUT FLAG = 0     TOTAL BUDGET PRINTOUT FLAG = 1
 CELL-BY-CELL FLOW TERM FLAG = 0
 REUSING PREVIOUS VALUES OF IOFLG

 SAVING SATURATED THICKNESS AND FLOW TERMS ON UNIT  333 FOR MT3DMS
 BY THE LINK-MT3DMS PACKAGE V6.3 AT TIME STEP   98, STRESS PERIOD    1

1
  VOLUMETRIC BUDGET FOR ENTIRE MODEL AT END OF TIME STEP 98 IN STRESS PERIOD   1
  ------------------------------------------------------------------------------

     CUMULATIVE VOLUMES      L**3       RATES FOR THIS TIME STEP      L**3/T
     ------------------                 ------------------------

           IN:                                      IN:
           ---                                      ---
             STORAGE =       32934.8438               STORAGE =       3.7918E-07
       CONSTANT HEAD =     7650166.5000         CONSTANT HEAD =           0.1074
                 MNW =     7680117.0000                   MNW =           0.1074

            TOTAL IN =    15363218.0000              TOTAL IN =           0.2149

          OUT:                                     OUT:
          ----                                     ----
             STORAGE =      128708.0547               STORAGE =       2.0381E-07
       CONSTANT HEAD =     7553703.5000         CONSTANT HEAD =           0.1074
                 MNW =     7680117.0000                   MNW =           0.1074

           TOTAL OUT =    15362529.0000             TOTAL OUT =           0.2149

            IN - OUT =         689.0000              IN - OUT =       3.9041E-06

 PERCENT DISCREPANCY =           0.00     PERCENT DISCREPANCY =           0.00






          TIME SUMMARY AT END OF TIME STEP  98 IN STRESS PERIOD    1
                    SECONDS     MINUTES      HOURS       DAYS        YEARS
                    -----------------------------------------------------------
   TIME STEP LENGTH 6.49183E+06 1.08197E+05  1803.3      75.137     0.20571    
 STRESS PERIOD TIME 7.14039E+07 1.19006E+06  19834.      826.43      2.2627    
         TOTAL TIME 7.14039E+07 1.19006E+06  19834.      826.43      2.2627    
1
 
 SOLVING FOR HEAD 
     3 CALLS TO PCG ROUTINE FOR TIME STEP  99 IN STRESS PERIOD    1
     9 TOTAL ITERATIONS

 HEAD/DRAWDOWN PRINTOUT FLAG = 0     TOTAL BUDGET PRINTOUT FLAG = 1
 CELL-BY-CELL FLOW TERM FLAG = 0
 REUSING PREVIOUS VALUES OF IOFLG

 SAVING SATURATED THICKNESS AND FLOW TERMS ON UNIT  333 FOR MT3DMS
 BY THE LINK-MT3DMS PACKAGE V6.3 AT TIME STEP   99, STRESS PERIOD    1

1
  VOLUMETRIC BUDGET FOR ENTIRE MODEL AT END OF TIME STEP 99 IN STRESS PERIOD   1
  ------------------------------------------------------------------------------

     CUMULATIVE VOLUMES      L**3       RATES FOR THIS TIME STEP      L**3/T
     ------------------                 ------------------------

           IN:                                      IN:
           ---                                      ---
             STORAGE =       32947.1992               STORAGE =       1.7301E-06
       CONSTANT HEAD =     8417524.0000         CONSTANT HEAD =           0.1075
                 MNW =     8447142.0000                   MNW =           0.1074

            TOTAL IN =    16897614.0000              TOTAL IN =           0.2149

          OUT:                                     OUT:
          ----                                     ----
             STORAGE =      128721.6250               STORAGE =       1.8998E-06
       CONSTANT HEAD =     8321136.5000         CONSTANT HEAD =           0.1075
                 MNW =     8447142.0000                   MNW =           0.1074

           TOTAL OUT =    16897000.0000             TOTAL OUT =           0.2149

            IN - OUT =         614.0000              IN - OUT =      -1.0744E-05

 PERCENT DISCREPANCY =           0.00     PERCENT DISCREPANCY =           0.00






          TIME SUMMARY AT END OF TIME STEP  99 IN STRESS PERIOD    1
                    SECONDS     MINUTES      HOURS       DAYS        YEARS
                    -----------------------------------------------------------
   TIME STEP LENGTH 7.14102E+06 1.19017E+05  1983.6      82.651     0.22629    
 STRESS PERIOD TIME 7.85449E+07 1.30908E+06  21818.      909.08      2.4889    
         TOTAL TIME 7.85449E+07 1.30908E+06  21818.      909.08      2.4889    
1
 
 SOLVING FOR HEAD 
     3 CALLS TO PCG ROUTINE FOR TIME STEP 100 IN STRESS PERIOD    1
     8 TOTAL ITERATIONS

 HEAD/DRAWDOWN PRINTOUT FLAG = 0     TOTAL BUDGET PRINTOUT FLAG = 1
 CELL-BY-CELL FLOW TERM FLAG = 0
 REUSING PREVIOUS VALUES OF IOFLG

 SAVING SATURATED THICKNESS AND FLOW TERMS ON UNIT  333 FOR MT3DMS
 BY THE LINK-MT3DMS PACKAGE V6.3 AT TIME STEP  100, STRESS PERIOD    1

1
  VOLUMETRIC BUDGET FOR ENTIRE MODEL AT END OF TIME STEP100 IN STRESS PERIOD   1
  ------------------------------------------------------------------------------

     CUMULATIVE VOLUMES      L**3       RATES FOR THIS TIME STEP      L**3/T
     ------------------                 ------------------------

           IN:                                      IN:
           ---                                      ---
             STORAGE =       32954.4805               STORAGE =       9.2674E-07
       CONSTANT HEAD =     9261570.0000         CONSTANT HEAD =           0.1075
                 MNW =     9291055.0000                   MNW =           0.1074

            TOTAL IN =    18585580.0000              TOTAL IN =           0.2149

          OUT:                                     OUT:
          ----                                     ----
             STORAGE =      128730.5938               STORAGE =       1.1420E-06
       CONSTANT HEAD =     9165200.0000         CONSTANT HEAD =           0.1075
                 MNW =     9291055.0000                   MNW =           0.1074

           TOTAL OUT =    18584986.0000             TOTAL OUT =           0.2149

            IN - OUT =         594.0000              IN - OUT =      -2.4289E-06

 PERCENT DISCREPANCY =           0.00     PERCENT DISCREPANCY =           0.00






          TIME SUMMARY AT END OF TIME STEP 100 IN STRESS PERIOD    1
                    SECONDS     MINUTES      HOURS       DAYS        YEARS
                    -----------------------------------------------------------
   TIME STEP LENGTH 7.85512E+06 1.30919E+05  2182.0      90.916     0.24891    
 STRESS PERIOD TIME 8.64000E+07 1.44000E+06  24000.      1000.0      2.7379    
         TOTAL TIME 8.64000E+07 1.44000E+06  24000.      1000.0      2.7379    
1
