                                   MODFLOW 6
                U.S. GEOLOGICAL SURVEY MODULAR HYDROLOGIC MODEL
                          GROUNDWATER FLOW MODEL (GWF)
                            VERSION 6.4.2 06/28/2023
                               ***DEVELOP MODE***

        MODFLOW 6 compiled Oct  4 2023 09:03:27 with GCC version 11.3.0

This software has been approved for release by the U.S. Geological 
Survey (USGS). Although the software has been subjected to rigorous 
review, the USGS reserves the right to update the software as needed 
pursuant to further analysis and review. No warranty, expressed or 
implied, is made by the USGS or the U.S. Government as to the 
functionality of the software and related material nor shall the 
fact of release constitute any such warranty. Furthermore, the 
software is released on condition that neither the USGS nor the U.S. 
Government shall be held liable for any damages resulting from its 
authorized or unauthorized use. Also refer to the USGS Water 
Resources Software User Rights Notice for complete use, copyright, 
and distribution information.


As a work of the United States Government, this USGS product is 
in the public domain within the United States. You can copy, 
modify, distribute, and perform the work, even for commercial 
purposes, all without asking permission. Additionally, USGS 
waives copyright and related rights in the work worldwide 
through CC0 1.0 Universal Public Domain Dedication 
(https://creativecommons.org/publicdomain/zero/1.0/).

The following GNU Lesser General Public License (LGPL) libraries
are used in this USGS product:

    SPARSKIT version 2.0
      ilut, luson, and qsplit 
      (https://www-users.cse.umn.edu/~saad/software/SPARSKIT/)

    RCM - Reverse Cuthill McKee Ordering
      (https://people.math.sc.edu/Burkardt/f_src/rcm/rcm.html)

    BLAS - Basic Linear Algebra Subprograms Level 1
      (https://people.math.sc.edu/Burkardt/f_src/blas1_d/blas1_d.html)

    SPARSEKIT - Sparse Matrix Utility Package
      amux, dperm, dvperm, rperm, and cperm
      (https://people.sc.fsu.edu/~jburkardt/f77_src/sparsekit/sparsekit.html)

The following BSD-3 License libraries are used in this USGS product:

    Modern Fortran DAG Library
      Copyright (c) 2018, Jacob Williams
      All rights reserved.
      (https://github.com/jacobwilliams/daglib)

MODFLOW 6 compiler options: -fdiagnostics-color=always -cpp -I
src/libmf6core.a.p -I src -I ../mf6.4.2_linux/src -I src/libmf6_external.a.p
-imultiarch x86_64-linux-gnu -D _FILE_OFFSET_BITS=64 -D __linux__
-mtune=generic -march=x86-64 -O2 -Wall -Wpedantic -Wcharacter-truncation
-Wno-unused-dummy-argument -Wno-intrinsic-shadow -Wno-maybe-uninitialized
-Wno-uninitialized -std=f2008 -fall-intrinsics -ffpe-summary=overflow
-ffpe-trap=overflow,zero,invalid -fPIC -J src/libmf6core.a.p
-fpre-include=/usr/include/finclude/math-vector-fortran.h

System command used to initiate simulation:
/home/mreno/.clone/usgs/w/netcdf/2/modflow6/bin/rebuilt/mf6

MODFLOW was compiled using uniform precision.

Real Variables
  KIND: 8
  TINY (smallest non-zero value):    2.225074-308
  HUGE (largest value):    1.797693+308
  PRECISION: 15
  SIZE IN BITS: 64

Integer Variables
  KIND: 4
  HUGE (largest value): 2147483647
  SIZE IN BITS: 32

Long Integer Variables
  KIND: 8
  HUGE (largest value): 9223372036854775807
  SIZE IN BITS: 64

Logical Variables
  KIND: 4
  SIZE IN BITS: 32

 NAMEFILE OPTIONS:
 END NAMEFILE OPTIONS:

 DIS -- STRUCTURED GRID DISCRETIZATION PACKAGE, VERSION 2 : 3/27/2014 - INPUT READ FROM MEMPATH: __INPUT__/CSUB_SUB03A/DIS                         


 NPF -- NODE PROPERTY FLOW PACKAGE, VERSION 1, 3/30/2015 INPUT READ FROM MEMPATH: __INPUT__/CSUB_SUB03A/NPF                         

 Setting Discretization Options
 End Setting Discretization Options

 Setting Discretization Dimensions
    NLAY = 3
    NROW = 10
    NCOL = 10
 End Setting Discretization Dimensions

 Setting Discretization Griddata
    DELR set from input file
    DELC set from input file
    TOP set from input file
    BOTM set from input file
 End Setting Discretization Griddata

 Setting NPF Options
 End Setting NPF Options

 Setting NPF Griddata
    ICELLTYPE set from input file
    K set from input file
    K33 set from input file
    K22 not provided.  Setting K22 = K.
 End Setting NPF Griddata


 WEL   -- WEL PACKAGE, VERSION 8, 2/22/2014 INPUT READ FROM UNIT 1008
 # File generated by Flopy version 3.5.0.dev0 on 10/30/2023 at 09:02:45.

 PROCESSING WEL OPTIONS
    LISTS OF WEL CELLS WILL BE PRINTED.
    WEL FLOWS WILL BE PRINTED TO LISTING FILE.
 END OF WEL OPTIONS

 PROCESSING WEL DIMENSIONS
    MAXBOUND =       4
 END OF WEL DIMENSIONS

 RCH   -- RCH PACKAGE, VERSION 8, 2/22/2014 INPUT READ FROM UNIT 1009
 # File generated by Flopy version 3.5.0.dev0 on 10/30/2023 at 09:02:45.

 PROCESSING RCH OPTIONS
    RECHARGE INPUT WILL BE READ AS ARRAY(S).
 END OF RCHA OPTIONS

 CHD   -- CHD PACKAGE, VERSION 8, 2/22/2014 INPUT READ FROM UNIT 1010
 # File generated by Flopy version 3.5.0.dev0 on 10/30/2023 at 09:02:45.

 PROCESSING CHD OPTIONS
 END OF CHD OPTIONS

 PROCESSING CHD DIMENSIONS
    MAXBOUND =       4
 END OF CHD DIMENSIONS

 IC -- INITIAL CONDITIONS PACKAGE, VERSION 8, 3/28/2015 INPUT READ FROM UNIT 1006
 # File generated by Flopy version 3.5.0.dev0 on 10/30/2023 at 09:02:45.
 PROCESSING GRIDDATA

     INITIAL HEAD =   0.000000    
 END PROCESSING GRIDDATA

 STO -- STORAGE PACKAGE, VERSION 1, 5/19/2014 INPUT READ FROM UNIT 1005


 # File generated by Flopy version 3.5.0.dev0 on 10/30/2023 at 09:02:45.
 PROCESSING STORAGE OPTIONS
    STORAGECOEFFICIENT OPTION:
 Read storage coefficient rather than specific storage
 END OF STORAGE OPTIONS
 PROCESSING GRIDDATA

                 ICONVERT = 0 FOR LAYER 1

                 ICONVERT = 0 FOR LAYER 2

                 ICONVERT = 0 FOR LAYER 3

         SPECIFIC STORAGE =   0.000000    

           SPECIFIC YIELD =  0.1000000     FOR LAYER 1

           SPECIFIC YIELD =   0.000000     FOR LAYER 2

           SPECIFIC YIELD =   0.000000     FOR LAYER 3
 END PROCESSING GRIDDATA

 CSUB -- COMPACTION PACKAGE, VERSION 1, 12/15/2019 INPUT READ FROM UNIT 1011


 # File generated by Flopy version 3.5.0.dev0 on 10/30/2023 at 09:02:45.
 PROCESSING CSUB OPTIONS
    CSUB BOUNDARIES HAVE NAMES IN LAST COLUMN.
    LISTS OF CSUB CELLS WILL BE PRINTED.
    FLOWS WILL BE SAVED TO BUDGET FILE SPECIFIED IN OUTPUT CONTROL

 OPENED csub_sub03a.ib.strain.csv
 FILE TYPE:CSV_OUTPUT   UNIT 1015   STATUS:REPLACE             
 FORMAT:FORMATTED              ACCESS:SEQUENTIAL          
 ACTION:READWRITE           

    CSUB  INTERBED STRAIN CSV  WILL BE SAVED TO FILE: csub_sub03a.ib.strain.csv                                                                                                                                                                                                                                                                                                                                                                                                                                                                                                                                                                                                                                                                                                                                                                                                                                                                                                                                                                                                                                                                                                                                                                                                                                                                                                                                                                                                                                                                                                                                                                                                                                                                                                                                                                                                                                                                                                                                                                                                                                                                                                                                                                                                                                                                                                                                                                                                                                                                                                                                                                                                                                                                                                                                                                                                                                                                                                                                                                                                                                                                                                                                                                                                                                                                                                                                                                                                                                                                                                                                                                                                                                                                                                                                                                                                                                                                                                                                                                                                                                                                                                                                                                                                                                                                                                                                                                                                                                                                                                                                                                                                                                                                                                                                                                                                                                                                                                                                                                                                                                                                                                                                                                               
    OPENED ON UNIT:    1015

 OPENED csub_sub03a.sk.strain.csv
 FILE TYPE:CSV_OUTPUT   UNIT 1016   STATUS:REPLACE             
 FORMAT:FORMATTED              ACCESS:SEQUENTIAL          
 ACTION:READWRITE           

    CSUB  COARSE STRAIN CSV  WILL BE SAVED TO FILE: csub_sub03a.sk.strain.csv                                                                                                                                                                                                                                                                                                                                                                                                                                                                                                                                                                                                                                                                                                                                                                                                                                                                                                                                                                                                                                                                                                                                                                                                                                                                                                                                                                                                                                                                                                                                                                                                                                                                                                                                                                                                                                                                                                                                                                                                                                                                                                                                                                                                                                                                                                                                                                                                                                                                                                                                                                                                                                                                                                                                                                                                                                                                                                                                                                                                                                                                                                                                                                                                                                                                                                                                                                                                                                                                                                                                                                                                                                                                                                                                                                                                                                                                                                                                                                                                                                                                                                                                                                                                                                                                                                                                                                                                                                                                                                                                                                                                                                                                                                                                                                                                                                                                                                                                                                                                                                                                                                                                                                               
    OPENED ON UNIT:    1016

 OPENED csub_sub03a.compaction.gridbin
 FILE TYPE:DATA(BINARY)   UNIT 1017   STATUS:REPLACE             
 FORMAT:UNFORMATTED            ACCESS:STREAM              
 ACTION:READWRITE           

    CSUB  COMPACTION  WILL BE SAVED TO FILE: csub_sub03a.compaction.gridbin                                                                                                                                                                                                                                                                                                                                                                                                                                                                                                                                                                                                                                                                                                                                                                                                                                                                                                                                                                                                                                                                                                                                                                                                                                                                                                                                                                                                                                                                                                                                                                                                                                                                                                                                                                                                                                                                                                                                                                                                                                                                                                                                                                                                                                                                                                                                                                                                                                                                                                                                                                                                                                                                                                                                                                                                                                                                                                                                                                                                                                                                                                                                                                                                                                                                                                                                                                                                                                                                                                                                                                                                                                                                                                                                                                                                                                                                                                                                                                                                                                                                                                                                                                                                                                                                                                                                                                                                                                                                                                                                                                                                                                                                                                                                                                                                                                                                                                                                                                                                                                                                                                                                                                          
    OPENED ON UNIT:    1017

 OPENED csub_sub03a.csub.obs
 FILE TYPE:OBS   UNIT 1018   STATUS:OLD                 
 FORMAT:FORMATTED              ACCESS:SEQUENTIAL          
 ACTION:READ                

 END OF CSUB OPTIONS


 CSUB PACKAGE SETTINGS
    NUMBER OF DELAY CELLS = 19
    HEAD-BASED FORMULATION
    ELASTIC AND INELASTIC SPECIFIC STORAGE COEFFICIENTS WILL BE 
      SPECIFIED
    THICKNESS AND VOID RATIO WILL NOT BE ADJUSTED DURING THE
      SIMULATION
    INTERBED THICKNESS WILL BE SPECIFIED AS A THICKNESS
    PRECONSOLIDATION HEAD WILL BE SPECIFIED AS ABSOLUTE VALUES
      INSTEAD OF RELATIVE TO INITIAL HEAD CONDITIONS
    DELAY INTERBED HEADS WILL BE SPECIFIED AS ABSOLUTE VALUES INSTEAD
      OF RELATIVE TO INITIAL GWF HEADS
    EFFECTIVE_STRESS_LAG HAS BEEN SPECIFIED BUT HAS NO EFFECT WHEN
      USING THE HEAD-BASED FORMULATION (HEAD_BASED HAS BEEN SPECIFIED
      IN THE OPTIONS BLOCK)
    GAMMAW        = 9806.6499999999996
    BETA          = 0.0000000000000000
    GAMMAW * BETA = 0.0000000000000000

 PROCESSING CSUB DIMENSIONS
    NINTERBEDS = 296
 END OF CSUB DIMENSIONS

The observation utility is active for "CSUB"
 # File generated by Flopy version 3.5.0.dev0 on 10/30/2023 at 09:02:45.

Processing observation options:

Text output number of digits of precision set to: 10
The PRINT_INPUT option has been specified.


 OBSERVATIONS READ FROM FILE "csub_sub03a.csub.obs"
 ----------------------------------------------------------------------------------------------------------------------------------------------------------------------------------------------------------------------------
 NAME                                     TYPE                                       TIME         LOCATION DATA                              OUTPUT FILENAME                                                                 
 ----------------------------------------------------------------------------------------------------------------------------------------------------------------------------------------------------------------------------
 TCOMP1                                   CONTINUOUS  INTERBED-COMPACTION            ALL TIMES    "  01_05_05"                               csub_obs.csv                                                                    
 TCOMP2                                   CONTINUOUS  INTERBED-COMPACTION            ALL TIMES    "  02_05_05"                               csub_obs.csv                                                                    
 TCOMP3                                   CONTINUOUS  INTERBED-COMPACTION            ALL TIMES    "  03_05_05"                               csub_obs.csv                                                                    
 ----------------------------------------------------------------------------------------------------------------------------------------------------------------------------------------------------------------------------



 CG_SKE_CR =  0.3000000E-05 FOR LAYER 1

 CG_SKE_CR =   0.000000     FOR LAYER 2

 CG_SKE_CR =  0.3000000E-05 FOR LAYER 3

 CG_THETA =  0.2000000    

 PROCESSING CSUB PACKAGEDATA
 END OF CSUB PACKAGEDATA

 CSUB PACKAGE INTERBED DATA
 ---------------------------------------------------------------------------------------------------------------------------------------------------------------------------
 INTERBED          CELLID          CDELAY      PCS       THICK       RNB       SSV_CC     SSV_CR     THETA        KV         H0     BOUNDNAME                               
 ---------------------------------------------------------------------------------------------------------------------------------------------------------------------------
 1                (1,1,1)         NODELAY   -7.00       15.0       1.00       6.000E-04  6.000E-06  0.451         -          -      01_01_01                                
 2                (1,1,2)         NODELAY   -7.00       15.0       1.00       6.000E-04  6.000E-06  0.451         -          -      01_01_02                                
 3                (1,1,3)         NODELAY   -7.00       15.0       1.00       6.000E-04  6.000E-06  0.451         -          -      01_01_03                                
 4                (1,1,4)         NODELAY   -7.00       15.0       1.00       6.000E-04  6.000E-06  0.451         -          -      01_01_04                                
 5                (1,1,5)         NODELAY   -7.00       15.0       1.00       6.000E-04  6.000E-06  0.451         -          -      01_01_05                                
 6                (1,1,6)         NODELAY   -7.00       15.0       1.00       6.000E-04  6.000E-06  0.451         -          -      01_01_06                                
 7                (1,1,7)         NODELAY   -7.00       15.0       1.00       6.000E-04  6.000E-06  0.451         -          -      01_01_07                                
 8                (1,1,8)         NODELAY   -7.00       15.0       1.00       6.000E-04  6.000E-06  0.451         -          -      01_01_08                                
 9                (1,1,9)         NODELAY   -7.00       15.0       1.00       6.000E-04  6.000E-06  0.451         -          -      01_01_09                                
 10               (1,1,10)        NODELAY   -7.00       15.0       1.00       6.000E-04  6.000E-06  0.451         -          -      01_01_10                                
 11               (1,2,1)         NODELAY   -7.00       15.0       1.00       6.000E-04  6.000E-06  0.451         -          -      01_02_01                                
 12               (1,2,2)         NODELAY   -7.00       15.0       1.00       6.000E-04  6.000E-06  0.451         -          -      01_02_02                                
 13               (1,2,3)         NODELAY   -7.00       15.0       1.00       6.000E-04  6.000E-06  0.451         -          -      01_02_03                                
 14               (1,2,4)         NODELAY   -7.00       15.0       1.00       6.000E-04  6.000E-06  0.451         -          -      01_02_04                                
 15               (1,2,5)         NODELAY   -7.00       15.0       1.00       6.000E-04  6.000E-06  0.451         -          -      01_02_05                                
 16               (1,2,6)         NODELAY   -7.00       15.0       1.00       6.000E-04  6.000E-06  0.451         -          -      01_02_06                                
 17               (1,2,7)         NODELAY   -7.00       15.0       1.00       6.000E-04  6.000E-06  0.451         -          -      01_02_07                                
 18               (1,2,8)         NODELAY   -7.00       15.0       1.00       6.000E-04  6.000E-06  0.451         -          -      01_02_08                                
 19               (1,2,9)         NODELAY   -7.00       15.0       1.00       6.000E-04  6.000E-06  0.451         -          -      01_02_09                                
 20               (1,2,10)        NODELAY   -7.00       15.0       1.00       6.000E-04  6.000E-06  0.451         -          -      01_02_10                                
 21               (1,3,1)         NODELAY   -7.00       15.0       1.00       6.000E-04  6.000E-06  0.451         -          -      01_03_01                                
 22               (1,3,2)         NODELAY   -7.00       15.0       1.00       6.000E-04  6.000E-06  0.451         -          -      01_03_02                                
 23               (1,3,3)         NODELAY   -7.00       15.0       1.00       6.000E-04  6.000E-06  0.451         -          -      01_03_03                                
 24               (1,3,4)         NODELAY   -7.00       15.0       1.00       6.000E-04  6.000E-06  0.451         -          -      01_03_04                                
 25               (1,3,5)         NODELAY   -7.00       15.0       1.00       6.000E-04  6.000E-06  0.451         -          -      01_03_05                                
 26               (1,3,6)         NODELAY   -7.00       15.0       1.00       6.000E-04  6.000E-06  0.451         -          -      01_03_06                                
 27               (1,3,7)         NODELAY   -7.00       15.0       1.00       6.000E-04  6.000E-06  0.451         -          -      01_03_07                                
 28               (1,3,8)         NODELAY   -7.00       15.0       1.00       6.000E-04  6.000E-06  0.451         -          -      01_03_08                                
 29               (1,3,9)         NODELAY   -7.00       15.0       1.00       6.000E-04  6.000E-06  0.451         -          -      01_03_09                                
 30               (1,3,10)        NODELAY   -7.00       15.0       1.00       6.000E-04  6.000E-06  0.451         -          -      01_03_10                                
 31               (1,4,1)         NODELAY   -7.00       15.0       1.00       6.000E-04  6.000E-06  0.451         -          -      01_04_01                                
 32               (1,4,2)         NODELAY   -7.00       15.0       1.00       6.000E-04  6.000E-06  0.451         -          -      01_04_02                                
 33               (1,4,3)         NODELAY   -7.00       15.0       1.00       6.000E-04  6.000E-06  0.451         -          -      01_04_03                                
 34               (1,4,4)         NODELAY   -7.00       15.0       1.00       6.000E-04  6.000E-06  0.451         -          -      01_04_04                                
 35               (1,4,5)         NODELAY   -7.00       15.0       1.00       6.000E-04  6.000E-06  0.451         -          -      01_04_05                                
 36               (1,4,6)         NODELAY   -7.00       15.0       1.00       6.000E-04  6.000E-06  0.451         -          -      01_04_06                                
 37               (1,4,7)         NODELAY   -7.00       15.0       1.00       6.000E-04  6.000E-06  0.451         -          -      01_04_07                                
 38               (1,4,8)         NODELAY   -7.00       15.0       1.00       6.000E-04  6.000E-06  0.451         -          -      01_04_08                                
 39               (1,4,9)         NODELAY   -7.00       15.0       1.00       6.000E-04  6.000E-06  0.451         -          -      01_04_09                                
 40               (1,4,10)        NODELAY   -7.00       15.0       1.00       6.000E-04  6.000E-06  0.451         -          -      01_04_10                                
 41               (1,5,1)         NODELAY   -7.00       15.0       1.00       6.000E-04  6.000E-06  0.451         -          -      01_05_01                                
 42               (1,5,2)         NODELAY   -7.00       15.0       1.00       6.000E-04  6.000E-06  0.451         -          -      01_05_02                                
 43               (1,5,3)         NODELAY   -7.00       15.0       1.00       6.000E-04  6.000E-06  0.451         -          -      01_05_03                                
 44               (1,5,4)         NODELAY   -7.00       15.0       1.00       6.000E-04  6.000E-06  0.451         -          -      01_05_04                                
 45               (1,5,5)         NODELAY   -7.00       15.0       1.00       6.000E-04  6.000E-06  0.451         -          -      01_05_05                                
 46               (1,5,6)         NODELAY   -7.00       15.0       1.00       6.000E-04  6.000E-06  0.451         -          -      01_05_06                                
 47               (1,5,7)         NODELAY   -7.00       15.0       1.00       6.000E-04  6.000E-06  0.451         -          -      01_05_07                                
 48               (1,5,8)         NODELAY   -7.00       15.0       1.00       6.000E-04  6.000E-06  0.451         -          -      01_05_08                                
 49               (1,5,9)         NODELAY   -7.00       15.0       1.00       6.000E-04  6.000E-06  0.451         -          -      01_05_09                                
 50               (1,5,10)        NODELAY   -7.00       15.0       1.00       6.000E-04  6.000E-06  0.451         -          -      01_05_10                                
 51               (1,6,1)         NODELAY   -7.00       15.0       1.00       6.000E-04  6.000E-06  0.451         -          -      01_06_01                                
 52               (1,6,2)         NODELAY   -7.00       15.0       1.00       6.000E-04  6.000E-06  0.451         -          -      01_06_02                                
 53               (1,6,3)         NODELAY   -7.00       15.0       1.00       6.000E-04  6.000E-06  0.451         -          -      01_06_03                                
 54               (1,6,4)         NODELAY   -7.00       15.0       1.00       6.000E-04  6.000E-06  0.451         -          -      01_06_04                                
 55               (1,6,5)         NODELAY   -7.00       15.0       1.00       6.000E-04  6.000E-06  0.451         -          -      01_06_05                                
 56               (1,6,6)         NODELAY   -7.00       15.0       1.00       6.000E-04  6.000E-06  0.451         -          -      01_06_06                                
 57               (1,6,7)         NODELAY   -7.00       15.0       1.00       6.000E-04  6.000E-06  0.451         -          -      01_06_07                                
 58               (1,6,8)         NODELAY   -7.00       15.0       1.00       6.000E-04  6.000E-06  0.451         -          -      01_06_08                                
 59               (1,6,9)         NODELAY   -7.00       15.0       1.00       6.000E-04  6.000E-06  0.451         -          -      01_06_09                                
 60               (1,6,10)        NODELAY   -7.00       15.0       1.00       6.000E-04  6.000E-06  0.451         -          -      01_06_10                                
 61               (1,7,1)         NODELAY   -7.00       15.0       1.00       6.000E-04  6.000E-06  0.451         -          -      01_07_01                                
 62               (1,7,2)         NODELAY   -7.00       15.0       1.00       6.000E-04  6.000E-06  0.451         -          -      01_07_02                                
 63               (1,7,3)         NODELAY   -7.00       15.0       1.00       6.000E-04  6.000E-06  0.451         -          -      01_07_03                                
 64               (1,7,4)         NODELAY   -7.00       15.0       1.00       6.000E-04  6.000E-06  0.451         -          -      01_07_04                                
 65               (1,7,5)         NODELAY   -7.00       15.0       1.00       6.000E-04  6.000E-06  0.451         -          -      01_07_05                                
 66               (1,7,6)         NODELAY   -7.00       15.0       1.00       6.000E-04  6.000E-06  0.451         -          -      01_07_06                                
 67               (1,7,7)         NODELAY   -7.00       15.0       1.00       6.000E-04  6.000E-06  0.451         -          -      01_07_07                                
 68               (1,7,8)         NODELAY   -7.00       15.0       1.00       6.000E-04  6.000E-06  0.451         -          -      01_07_08                                
 69               (1,7,9)         NODELAY   -7.00       15.0       1.00       6.000E-04  6.000E-06  0.451         -          -      01_07_09                                
 70               (1,7,10)        NODELAY   -7.00       15.0       1.00       6.000E-04  6.000E-06  0.451         -          -      01_07_10                                
 71               (1,8,1)         NODELAY   -7.00       15.0       1.00       6.000E-04  6.000E-06  0.451         -          -      01_08_01                                
 72               (1,8,2)         NODELAY   -7.00       15.0       1.00       6.000E-04  6.000E-06  0.451         -          -      01_08_02                                
 73               (1,8,3)         NODELAY   -7.00       15.0       1.00       6.000E-04  6.000E-06  0.451         -          -      01_08_03                                
 74               (1,8,4)         NODELAY   -7.00       15.0       1.00       6.000E-04  6.000E-06  0.451         -          -      01_08_04                                
 75               (1,8,5)         NODELAY   -7.00       15.0       1.00       6.000E-04  6.000E-06  0.451         -          -      01_08_05                                
 76               (1,8,6)         NODELAY   -7.00       15.0       1.00       6.000E-04  6.000E-06  0.451         -          -      01_08_06                                
 77               (1,8,7)         NODELAY   -7.00       15.0       1.00       6.000E-04  6.000E-06  0.451         -          -      01_08_07                                
 78               (1,8,8)         NODELAY   -7.00       15.0       1.00       6.000E-04  6.000E-06  0.451         -          -      01_08_08                                
 79               (1,8,9)         NODELAY   -7.00       15.0       1.00       6.000E-04  6.000E-06  0.451         -          -      01_08_09                                
 80               (1,8,10)        NODELAY   -7.00       15.0       1.00       6.000E-04  6.000E-06  0.451         -          -      01_08_10                                
 81               (1,9,1)         NODELAY   -7.00       15.0       1.00       6.000E-04  6.000E-06  0.451         -          -      01_09_01                                
 82               (1,9,2)         NODELAY   -7.00       15.0       1.00       6.000E-04  6.000E-06  0.451         -          -      01_09_02                                
 83               (1,9,3)         NODELAY   -7.00       15.0       1.00       6.000E-04  6.000E-06  0.451         -          -      01_09_03                                
 84               (1,9,4)         NODELAY   -7.00       15.0       1.00       6.000E-04  6.000E-06  0.451         -          -      01_09_04                                
 85               (1,9,5)         NODELAY   -7.00       15.0       1.00       6.000E-04  6.000E-06  0.451         -          -      01_09_05                                
 86               (1,9,6)         NODELAY   -7.00       15.0       1.00       6.000E-04  6.000E-06  0.451         -          -      01_09_06                                
 87               (1,9,7)         NODELAY   -7.00       15.0       1.00       6.000E-04  6.000E-06  0.451         -          -      01_09_07                                
 88               (1,9,8)         NODELAY   -7.00       15.0       1.00       6.000E-04  6.000E-06  0.451         -          -      01_09_08                                
 89               (1,9,9)         NODELAY   -7.00       15.0       1.00       6.000E-04  6.000E-06  0.451         -          -      01_09_09                                
 90               (1,9,10)        NODELAY   -7.00       15.0       1.00       6.000E-04  6.000E-06  0.451         -          -      01_09_10                                
 91               (1,10,1)        NODELAY   -7.00       15.0       1.00       6.000E-04  6.000E-06  0.451         -          -      01_10_01                                
 92               (1,10,2)        NODELAY   -7.00       15.0       1.00       6.000E-04  6.000E-06  0.451         -          -      01_10_02                                
 93               (1,10,3)        NODELAY   -7.00       15.0       1.00       6.000E-04  6.000E-06  0.451         -          -      01_10_03                                
 94               (1,10,8)        NODELAY   -7.00       15.0       1.00       6.000E-04  6.000E-06  0.451         -          -      01_10_08                                
 95               (1,10,9)        NODELAY   -7.00       15.0       1.00       6.000E-04  6.000E-06  0.451         -          -      01_10_09                                
 96              (1,10,10)        NODELAY   -7.00       15.0       1.00       6.000E-04  6.000E-06  0.451         -          -      01_10_10                                
 97               (2,1,1)         NODELAY   -7.00       50.0       1.00       3.000E-04  3.000E-06  0.451         -          -      02_01_01                                
 98               (2,1,2)         NODELAY   -7.00       50.0       1.00       3.000E-04  3.000E-06  0.451         -          -      02_01_02                                
 99               (2,1,3)         NODELAY   -7.00       50.0       1.00       3.000E-04  3.000E-06  0.451         -          -      02_01_03                                
 100              (2,1,4)         NODELAY   -7.00       50.0       1.00       3.000E-04  3.000E-06  0.451         -          -      02_01_04                                
 101              (2,1,5)         NODELAY   -7.00       50.0       1.00       3.000E-04  3.000E-06  0.451         -          -      02_01_05                                
 102              (2,1,6)         NODELAY   -7.00       50.0       1.00       3.000E-04  3.000E-06  0.451         -          -      02_01_06                                
 103              (2,1,7)         NODELAY   -7.00       50.0       1.00       3.000E-04  3.000E-06  0.451         -          -      02_01_07                                
 104              (2,1,8)         NODELAY   -7.00       50.0       1.00       3.000E-04  3.000E-06  0.451         -          -      02_01_08                                
 105              (2,1,9)         NODELAY   -7.00       50.0       1.00       3.000E-04  3.000E-06  0.451         -          -      02_01_09                                
 106              (2,1,10)        NODELAY   -7.00       50.0       1.00       3.000E-04  3.000E-06  0.451         -          -      02_01_10                                
 107              (2,2,1)         NODELAY   -7.00       50.0       1.00       3.000E-04  3.000E-06  0.451         -          -      02_02_01                                
 108              (2,2,2)         NODELAY   -7.00       50.0       1.00       3.000E-04  3.000E-06  0.451         -          -      02_02_02                                
 109              (2,2,3)         NODELAY   -7.00       50.0       1.00       3.000E-04  3.000E-06  0.451         -          -      02_02_03                                
 110              (2,2,4)         NODELAY   -7.00       50.0       1.00       3.000E-04  3.000E-06  0.451         -          -      02_02_04                                
 111              (2,2,5)         NODELAY   -7.00       50.0       1.00       3.000E-04  3.000E-06  0.451         -          -      02_02_05                                
 112              (2,2,6)         NODELAY   -7.00       50.0       1.00       3.000E-04  3.000E-06  0.451         -          -      02_02_06                                
 113              (2,2,7)         NODELAY   -7.00       50.0       1.00       3.000E-04  3.000E-06  0.451         -          -      02_02_07                                
 114              (2,2,8)         NODELAY   -7.00       50.0       1.00       3.000E-04  3.000E-06  0.451         -          -      02_02_08                                
 115              (2,2,9)         NODELAY   -7.00       50.0       1.00       3.000E-04  3.000E-06  0.451         -          -      02_02_09                                
 116              (2,2,10)        NODELAY   -7.00       50.0       1.00       3.000E-04  3.000E-06  0.451         -          -      02_02_10                                
 117              (2,3,1)         NODELAY   -7.00       50.0       1.00       3.000E-04  3.000E-06  0.451         -          -      02_03_01                                
 118              (2,3,2)         NODELAY   -7.00       50.0       1.00       3.000E-04  3.000E-06  0.451         -          -      02_03_02                                
 119              (2,3,3)         NODELAY   -7.00       50.0       1.00       3.000E-04  3.000E-06  0.451         -          -      02_03_03                                
 120              (2,3,4)         NODELAY   -7.00       50.0       1.00       3.000E-04  3.000E-06  0.451         -          -      02_03_04                                
 121              (2,3,5)         NODELAY   -7.00       50.0       1.00       3.000E-04  3.000E-06  0.451         -          -      02_03_05                                
 122              (2,3,6)         NODELAY   -7.00       50.0       1.00       3.000E-04  3.000E-06  0.451         -          -      02_03_06                                
 123              (2,3,7)         NODELAY   -7.00       50.0       1.00       3.000E-04  3.000E-06  0.451         -          -      02_03_07                                
 124              (2,3,8)         NODELAY   -7.00       50.0       1.00       3.000E-04  3.000E-06  0.451         -          -      02_03_08                                
 125              (2,3,9)         NODELAY   -7.00       50.0       1.00       3.000E-04  3.000E-06  0.451         -          -      02_03_09                                
 126              (2,3,10)        NODELAY   -7.00       50.0       1.00       3.000E-04  3.000E-06  0.451         -          -      02_03_10                                
 127              (2,4,1)         NODELAY   -7.00       50.0       1.00       3.000E-04  3.000E-06  0.451         -          -      02_04_01                                
 128              (2,4,2)         NODELAY   -7.00       50.0       1.00       3.000E-04  3.000E-06  0.451         -          -      02_04_02                                
 129              (2,4,3)         NODELAY   -7.00       50.0       1.00       3.000E-04  3.000E-06  0.451         -          -      02_04_03                                
 130              (2,4,4)         NODELAY   -7.00       50.0       1.00       3.000E-04  3.000E-06  0.451         -          -      02_04_04                                
 131              (2,4,5)         NODELAY   -7.00       50.0       1.00       3.000E-04  3.000E-06  0.451         -          -      02_04_05                                
 132              (2,4,6)         NODELAY   -7.00       50.0       1.00       3.000E-04  3.000E-06  0.451         -          -      02_04_06                                
 133              (2,4,7)         NODELAY   -7.00       50.0       1.00       3.000E-04  3.000E-06  0.451         -          -      02_04_07                                
 134              (2,4,8)         NODELAY   -7.00       50.0       1.00       3.000E-04  3.000E-06  0.451         -          -      02_04_08                                
 135              (2,4,9)         NODELAY   -7.00       50.0       1.00       3.000E-04  3.000E-06  0.451         -          -      02_04_09                                
 136              (2,4,10)        NODELAY   -7.00       50.0       1.00       3.000E-04  3.000E-06  0.451         -          -      02_04_10                                
 137              (2,5,1)         NODELAY   -7.00       50.0       1.00       3.000E-04  3.000E-06  0.451         -          -      02_05_01                                
 138              (2,5,2)         NODELAY   -7.00       50.0       1.00       3.000E-04  3.000E-06  0.451         -          -      02_05_02                                
 139              (2,5,3)         NODELAY   -7.00       50.0       1.00       3.000E-04  3.000E-06  0.451         -          -      02_05_03                                
 140              (2,5,4)         NODELAY   -7.00       50.0       1.00       3.000E-04  3.000E-06  0.451         -          -      02_05_04                                
 141              (2,5,5)         NODELAY   -7.00       50.0       1.00       3.000E-04  3.000E-06  0.451         -          -      02_05_05                                
 142              (2,5,6)         NODELAY   -7.00       50.0       1.00       3.000E-04  3.000E-06  0.451         -          -      02_05_06                                
 143              (2,5,7)         NODELAY   -7.00       50.0       1.00       3.000E-04  3.000E-06  0.451         -          -      02_05_07                                
 144              (2,5,8)         NODELAY   -7.00       50.0       1.00       3.000E-04  3.000E-06  0.451         -          -      02_05_08                                
 145              (2,5,9)         NODELAY   -7.00       50.0       1.00       3.000E-04  3.000E-06  0.451         -          -      02_05_09                                
 146              (2,5,10)        NODELAY   -7.00       50.0       1.00       3.000E-04  3.000E-06  0.451         -          -      02_05_10                                
 147              (2,6,1)         NODELAY   -7.00       50.0       1.00       3.000E-04  3.000E-06  0.451         -          -      02_06_01                                
 148              (2,6,2)         NODELAY   -7.00       50.0       1.00       3.000E-04  3.000E-06  0.451         -          -      02_06_02                                
 149              (2,6,3)         NODELAY   -7.00       50.0       1.00       3.000E-04  3.000E-06  0.451         -          -      02_06_03                                
 150              (2,6,4)         NODELAY   -7.00       50.0       1.00       3.000E-04  3.000E-06  0.451         -          -      02_06_04                                
 151              (2,6,5)         NODELAY   -7.00       50.0       1.00       3.000E-04  3.000E-06  0.451         -          -      02_06_05                                
 152              (2,6,6)         NODELAY   -7.00       50.0       1.00       3.000E-04  3.000E-06  0.451         -          -      02_06_06                                
 153              (2,6,7)         NODELAY   -7.00       50.0       1.00       3.000E-04  3.000E-06  0.451         -          -      02_06_07                                
 154              (2,6,8)         NODELAY   -7.00       50.0       1.00       3.000E-04  3.000E-06  0.451         -          -      02_06_08                                
 155              (2,6,9)         NODELAY   -7.00       50.0       1.00       3.000E-04  3.000E-06  0.451         -          -      02_06_09                                
 156              (2,6,10)        NODELAY   -7.00       50.0       1.00       3.000E-04  3.000E-06  0.451         -          -      02_06_10                                
 157              (2,7,1)         NODELAY   -7.00       50.0       1.00       3.000E-04  3.000E-06  0.451         -          -      02_07_01                                
 158              (2,7,2)         NODELAY   -7.00       50.0       1.00       3.000E-04  3.000E-06  0.451         -          -      02_07_02                                
 159              (2,7,3)         NODELAY   -7.00       50.0       1.00       3.000E-04  3.000E-06  0.451         -          -      02_07_03                                
 160              (2,7,4)         NODELAY   -7.00       50.0       1.00       3.000E-04  3.000E-06  0.451         -          -      02_07_04                                
 161              (2,7,5)         NODELAY   -7.00       50.0       1.00       3.000E-04  3.000E-06  0.451         -          -      02_07_05                                
 162              (2,7,6)         NODELAY   -7.00       50.0       1.00       3.000E-04  3.000E-06  0.451         -          -      02_07_06                                
 163              (2,7,7)         NODELAY   -7.00       50.0       1.00       3.000E-04  3.000E-06  0.451         -          -      02_07_07                                
 164              (2,7,8)         NODELAY   -7.00       50.0       1.00       3.000E-04  3.000E-06  0.451         -          -      02_07_08                                
 165              (2,7,9)         NODELAY   -7.00       50.0       1.00       3.000E-04  3.000E-06  0.451         -          -      02_07_09                                
 166              (2,7,10)        NODELAY   -7.00       50.0       1.00       3.000E-04  3.000E-06  0.451         -          -      02_07_10                                
 167              (2,8,1)         NODELAY   -7.00       50.0       1.00       3.000E-04  3.000E-06  0.451         -          -      02_08_01                                
 168              (2,8,2)         NODELAY   -7.00       50.0       1.00       3.000E-04  3.000E-06  0.451         -          -      02_08_02                                
 169              (2,8,3)         NODELAY   -7.00       50.0       1.00       3.000E-04  3.000E-06  0.451         -          -      02_08_03                                
 170              (2,8,4)         NODELAY   -7.00       50.0       1.00       3.000E-04  3.000E-06  0.451         -          -      02_08_04                                
 171              (2,8,5)         NODELAY   -7.00       50.0       1.00       3.000E-04  3.000E-06  0.451         -          -      02_08_05                                
 172              (2,8,6)         NODELAY   -7.00       50.0       1.00       3.000E-04  3.000E-06  0.451         -          -      02_08_06                                
 173              (2,8,7)         NODELAY   -7.00       50.0       1.00       3.000E-04  3.000E-06  0.451         -          -      02_08_07                                
 174              (2,8,8)         NODELAY   -7.00       50.0       1.00       3.000E-04  3.000E-06  0.451         -          -      02_08_08                                
 175              (2,8,9)         NODELAY   -7.00       50.0       1.00       3.000E-04  3.000E-06  0.451         -          -      02_08_09                                
 176              (2,8,10)        NODELAY   -7.00       50.0       1.00       3.000E-04  3.000E-06  0.451         -          -      02_08_10                                
 177              (2,9,1)         NODELAY   -7.00       50.0       1.00       3.000E-04  3.000E-06  0.451         -          -      02_09_01                                
 178              (2,9,2)         NODELAY   -7.00       50.0       1.00       3.000E-04  3.000E-06  0.451         -          -      02_09_02                                
 179              (2,9,3)         NODELAY   -7.00       50.0       1.00       3.000E-04  3.000E-06  0.451         -          -      02_09_03                                
 180              (2,9,4)         NODELAY   -7.00       50.0       1.00       3.000E-04  3.000E-06  0.451         -          -      02_09_04                                
 181              (2,9,5)         NODELAY   -7.00       50.0       1.00       3.000E-04  3.000E-06  0.451         -          -      02_09_05                                
 182              (2,9,6)         NODELAY   -7.00       50.0       1.00       3.000E-04  3.000E-06  0.451         -          -      02_09_06                                
 183              (2,9,7)         NODELAY   -7.00       50.0       1.00       3.000E-04  3.000E-06  0.451         -          -      02_09_07                                
 184              (2,9,8)         NODELAY   -7.00       50.0       1.00       3.000E-04  3.000E-06  0.451         -          -      02_09_08                                
 185              (2,9,9)         NODELAY   -7.00       50.0       1.00       3.000E-04  3.000E-06  0.451         -          -      02_09_09                                
 186              (2,9,10)        NODELAY   -7.00       50.0       1.00       3.000E-04  3.000E-06  0.451         -          -      02_09_10                                
 187              (2,10,1)        NODELAY   -7.00       50.0       1.00       3.000E-04  3.000E-06  0.451         -          -      02_10_01                                
 188              (2,10,2)        NODELAY   -7.00       50.0       1.00       3.000E-04  3.000E-06  0.451         -          -      02_10_02                                
 189              (2,10,3)        NODELAY   -7.00       50.0       1.00       3.000E-04  3.000E-06  0.451         -          -      02_10_03                                
 190              (2,10,4)        NODELAY   -7.00       50.0       1.00       3.000E-04  3.000E-06  0.451         -          -      02_10_04                                
 191              (2,10,5)        NODELAY   -7.00       50.0       1.00       3.000E-04  3.000E-06  0.451         -          -      02_10_05                                
 192              (2,10,6)        NODELAY   -7.00       50.0       1.00       3.000E-04  3.000E-06  0.451         -          -      02_10_06                                
 193              (2,10,7)        NODELAY   -7.00       50.0       1.00       3.000E-04  3.000E-06  0.451         -          -      02_10_07                                
 194              (2,10,8)        NODELAY   -7.00       50.0       1.00       3.000E-04  3.000E-06  0.451         -          -      02_10_08                                
 195              (2,10,9)        NODELAY   -7.00       50.0       1.00       3.000E-04  3.000E-06  0.451         -          -      02_10_09                                
 196             (2,10,10)        NODELAY   -7.00       50.0       1.00       3.000E-04  3.000E-06  0.451         -          -      02_10_10                                
 197              (3,1,1)         NODELAY   -7.00       30.0       1.00       6.000E-04  6.000E-06  0.451         -          -      03_01_01                                
 198              (3,1,2)         NODELAY   -7.00       30.0       1.00       6.000E-04  6.000E-06  0.451         -          -      03_01_02                                
 199              (3,1,3)         NODELAY   -7.00       30.0       1.00       6.000E-04  6.000E-06  0.451         -          -      03_01_03                                
 200              (3,1,4)         NODELAY   -7.00       30.0       1.00       6.000E-04  6.000E-06  0.451         -          -      03_01_04                                
 201              (3,1,5)         NODELAY   -7.00       30.0       1.00       6.000E-04  6.000E-06  0.451         -          -      03_01_05                                
 202              (3,1,6)         NODELAY   -7.00       30.0       1.00       6.000E-04  6.000E-06  0.451         -          -      03_01_06                                
 203              (3,1,7)         NODELAY   -7.00       30.0       1.00       6.000E-04  6.000E-06  0.451         -          -      03_01_07                                
 204              (3,1,8)         NODELAY   -7.00       30.0       1.00       6.000E-04  6.000E-06  0.451         -          -      03_01_08                                
 205              (3,1,9)         NODELAY   -7.00       30.0       1.00       6.000E-04  6.000E-06  0.451         -          -      03_01_09                                
 206              (3,1,10)        NODELAY   -7.00       30.0       1.00       6.000E-04  6.000E-06  0.451         -          -      03_01_10                                
 207              (3,2,1)         NODELAY   -7.00       30.0       1.00       6.000E-04  6.000E-06  0.451         -          -      03_02_01                                
 208              (3,2,2)         NODELAY   -7.00       30.0       1.00       6.000E-04  6.000E-06  0.451         -          -      03_02_02                                
 209              (3,2,3)         NODELAY   -7.00       30.0       1.00       6.000E-04  6.000E-06  0.451         -          -      03_02_03                                
 210              (3,2,4)         NODELAY   -7.00       30.0       1.00       6.000E-04  6.000E-06  0.451         -          -      03_02_04                                
 211              (3,2,5)         NODELAY   -7.00       30.0       1.00       6.000E-04  6.000E-06  0.451         -          -      03_02_05                                
 212              (3,2,6)         NODELAY   -7.00       30.0       1.00       6.000E-04  6.000E-06  0.451         -          -      03_02_06                                
 213              (3,2,7)         NODELAY   -7.00       30.0       1.00       6.000E-04  6.000E-06  0.451         -          -      03_02_07                                
 214              (3,2,8)         NODELAY   -7.00       30.0       1.00       6.000E-04  6.000E-06  0.451         -          -      03_02_08                                
 215              (3,2,9)         NODELAY   -7.00       30.0       1.00       6.000E-04  6.000E-06  0.451         -          -      03_02_09                                
 216              (3,2,10)        NODELAY   -7.00       30.0       1.00       6.000E-04  6.000E-06  0.451         -          -      03_02_10                                
 217              (3,3,1)         NODELAY   -7.00       30.0       1.00       6.000E-04  6.000E-06  0.451         -          -      03_03_01                                
 218              (3,3,2)         NODELAY   -7.00       30.0       1.00       6.000E-04  6.000E-06  0.451         -          -      03_03_02                                
 219              (3,3,3)         NODELAY   -7.00       30.0       1.00       6.000E-04  6.000E-06  0.451         -          -      03_03_03                                
 220              (3,3,4)         NODELAY   -7.00       30.0       1.00       6.000E-04  6.000E-06  0.451         -          -      03_03_04                                
 221              (3,3,5)         NODELAY   -7.00       30.0       1.00       6.000E-04  6.000E-06  0.451         -          -      03_03_05                                
 222              (3,3,6)         NODELAY   -7.00       30.0       1.00       6.000E-04  6.000E-06  0.451         -          -      03_03_06                                
 223              (3,3,7)         NODELAY   -7.00       30.0       1.00       6.000E-04  6.000E-06  0.451         -          -      03_03_07                                
 224              (3,3,8)         NODELAY   -7.00       30.0       1.00       6.000E-04  6.000E-06  0.451         -          -      03_03_08                                
 225              (3,3,9)         NODELAY   -7.00       30.0       1.00       6.000E-04  6.000E-06  0.451         -          -      03_03_09                                
 226              (3,3,10)        NODELAY   -7.00       30.0       1.00       6.000E-04  6.000E-06  0.451         -          -      03_03_10                                
 227              (3,4,1)         NODELAY   -7.00       30.0       1.00       6.000E-04  6.000E-06  0.451         -          -      03_04_01                                
 228              (3,4,2)         NODELAY   -7.00       30.0       1.00       6.000E-04  6.000E-06  0.451         -          -      03_04_02                                
 229              (3,4,3)         NODELAY   -7.00       30.0       1.00       6.000E-04  6.000E-06  0.451         -          -      03_04_03                                
 230              (3,4,4)         NODELAY   -7.00       30.0       1.00       6.000E-04  6.000E-06  0.451         -          -      03_04_04                                
 231              (3,4,5)         NODELAY   -7.00       30.0       1.00       6.000E-04  6.000E-06  0.451         -          -      03_04_05                                
 232              (3,4,6)         NODELAY   -7.00       30.0       1.00       6.000E-04  6.000E-06  0.451         -          -      03_04_06                                
 233              (3,4,7)         NODELAY   -7.00       30.0       1.00       6.000E-04  6.000E-06  0.451         -          -      03_04_07                                
 234              (3,4,8)         NODELAY   -7.00       30.0       1.00       6.000E-04  6.000E-06  0.451         -          -      03_04_08                                
 235              (3,4,9)         NODELAY   -7.00       30.0       1.00       6.000E-04  6.000E-06  0.451         -          -      03_04_09                                
 236              (3,4,10)        NODELAY   -7.00       30.0       1.00       6.000E-04  6.000E-06  0.451         -          -      03_04_10                                
 237              (3,5,1)         NODELAY   -7.00       30.0       1.00       6.000E-04  6.000E-06  0.451         -          -      03_05_01                                
 238              (3,5,2)         NODELAY   -7.00       30.0       1.00       6.000E-04  6.000E-06  0.451         -          -      03_05_02                                
 239              (3,5,3)         NODELAY   -7.00       30.0       1.00       6.000E-04  6.000E-06  0.451         -          -      03_05_03                                
 240              (3,5,4)         NODELAY   -7.00       30.0       1.00       6.000E-04  6.000E-06  0.451         -          -      03_05_04                                
 241              (3,5,5)         NODELAY   -7.00       30.0       1.00       6.000E-04  6.000E-06  0.451         -          -      03_05_05                                
 242              (3,5,6)         NODELAY   -7.00       30.0       1.00       6.000E-04  6.000E-06  0.451         -          -      03_05_06                                
 243              (3,5,7)         NODELAY   -7.00       30.0       1.00       6.000E-04  6.000E-06  0.451         -          -      03_05_07                                
 244              (3,5,8)         NODELAY   -7.00       30.0       1.00       6.000E-04  6.000E-06  0.451         -          -      03_05_08                                
 245              (3,5,9)         NODELAY   -7.00       30.0       1.00       6.000E-04  6.000E-06  0.451         -          -      03_05_09                                
 246              (3,5,10)        NODELAY   -7.00       30.0       1.00       6.000E-04  6.000E-06  0.451         -          -      03_05_10                                
 247              (3,6,1)         NODELAY   -7.00       30.0       1.00       6.000E-04  6.000E-06  0.451         -          -      03_06_01                                
 248              (3,6,2)         NODELAY   -7.00       30.0       1.00       6.000E-04  6.000E-06  0.451         -          -      03_06_02                                
 249              (3,6,3)         NODELAY   -7.00       30.0       1.00       6.000E-04  6.000E-06  0.451         -          -      03_06_03                                
 250              (3,6,4)         NODELAY   -7.00       30.0       1.00       6.000E-04  6.000E-06  0.451         -          -      03_06_04                                
 251              (3,6,5)         NODELAY   -7.00       30.0       1.00       6.000E-04  6.000E-06  0.451         -          -      03_06_05                                
 252              (3,6,6)         NODELAY   -7.00       30.0       1.00       6.000E-04  6.000E-06  0.451         -          -      03_06_06                                
 253              (3,6,7)         NODELAY   -7.00       30.0       1.00       6.000E-04  6.000E-06  0.451         -          -      03_06_07                                
 254              (3,6,8)         NODELAY   -7.00       30.0       1.00       6.000E-04  6.000E-06  0.451         -          -      03_06_08                                
 255              (3,6,9)         NODELAY   -7.00       30.0       1.00       6.000E-04  6.000E-06  0.451         -          -      03_06_09                                
 256              (3,6,10)        NODELAY   -7.00       30.0       1.00       6.000E-04  6.000E-06  0.451         -          -      03_06_10                                
 257              (3,7,1)         NODELAY   -7.00       30.0       1.00       6.000E-04  6.000E-06  0.451         -          -      03_07_01                                
 258              (3,7,2)         NODELAY   -7.00       30.0       1.00       6.000E-04  6.000E-06  0.451         -          -      03_07_02                                
 259              (3,7,3)         NODELAY   -7.00       30.0       1.00       6.000E-04  6.000E-06  0.451         -          -      03_07_03                                
 260              (3,7,4)         NODELAY   -7.00       30.0       1.00       6.000E-04  6.000E-06  0.451         -          -      03_07_04                                
 261              (3,7,5)         NODELAY   -7.00       30.0       1.00       6.000E-04  6.000E-06  0.451         -          -      03_07_05                                
 262              (3,7,6)         NODELAY   -7.00       30.0       1.00       6.000E-04  6.000E-06  0.451         -          -      03_07_06                                
 263              (3,7,7)         NODELAY   -7.00       30.0       1.00       6.000E-04  6.000E-06  0.451         -          -      03_07_07                                
 264              (3,7,8)         NODELAY   -7.00       30.0       1.00       6.000E-04  6.000E-06  0.451         -          -      03_07_08                                
 265              (3,7,9)         NODELAY   -7.00       30.0       1.00       6.000E-04  6.000E-06  0.451         -          -      03_07_09                                
 266              (3,7,10)        NODELAY   -7.00       30.0       1.00       6.000E-04  6.000E-06  0.451         -          -      03_07_10                                
 267              (3,8,1)         NODELAY   -7.00       30.0       1.00       6.000E-04  6.000E-06  0.451         -          -      03_08_01                                
 268              (3,8,2)         NODELAY   -7.00       30.0       1.00       6.000E-04  6.000E-06  0.451         -          -      03_08_02                                
 269              (3,8,3)         NODELAY   -7.00       30.0       1.00       6.000E-04  6.000E-06  0.451         -          -      03_08_03                                
 270              (3,8,4)         NODELAY   -7.00       30.0       1.00       6.000E-04  6.000E-06  0.451         -          -      03_08_04                                
 271              (3,8,5)         NODELAY   -7.00       30.0       1.00       6.000E-04  6.000E-06  0.451         -          -      03_08_05                                
 272              (3,8,6)         NODELAY   -7.00       30.0       1.00       6.000E-04  6.000E-06  0.451         -          -      03_08_06                                
 273              (3,8,7)         NODELAY   -7.00       30.0       1.00       6.000E-04  6.000E-06  0.451         -          -      03_08_07                                
 274              (3,8,8)         NODELAY   -7.00       30.0       1.00       6.000E-04  6.000E-06  0.451         -          -      03_08_08                                
 275              (3,8,9)         NODELAY   -7.00       30.0       1.00       6.000E-04  6.000E-06  0.451         -          -      03_08_09                                
 276              (3,8,10)        NODELAY   -7.00       30.0       1.00       6.000E-04  6.000E-06  0.451         -          -      03_08_10                                
 277              (3,9,1)         NODELAY   -7.00       30.0       1.00       6.000E-04  6.000E-06  0.451         -          -      03_09_01                                
 278              (3,9,2)         NODELAY   -7.00       30.0       1.00       6.000E-04  6.000E-06  0.451         -          -      03_09_02                                
 279              (3,9,3)         NODELAY   -7.00       30.0       1.00       6.000E-04  6.000E-06  0.451         -          -      03_09_03                                
 280              (3,9,4)         NODELAY   -7.00       30.0       1.00       6.000E-04  6.000E-06  0.451         -          -      03_09_04                                
 281              (3,9,5)         NODELAY   -7.00       30.0       1.00       6.000E-04  6.000E-06  0.451         -          -      03_09_05                                
 282              (3,9,6)         NODELAY   -7.00       30.0       1.00       6.000E-04  6.000E-06  0.451         -          -      03_09_06                                
 283              (3,9,7)         NODELAY   -7.00       30.0       1.00       6.000E-04  6.000E-06  0.451         -          -      03_09_07                                
 284              (3,9,8)         NODELAY   -7.00       30.0       1.00       6.000E-04  6.000E-06  0.451         -          -      03_09_08                                
 285              (3,9,9)         NODELAY   -7.00       30.0       1.00       6.000E-04  6.000E-06  0.451         -          -      03_09_09                                
 286              (3,9,10)        NODELAY   -7.00       30.0       1.00       6.000E-04  6.000E-06  0.451         -          -      03_09_10                                
 287              (3,10,1)        NODELAY   -7.00       30.0       1.00       6.000E-04  6.000E-06  0.451         -          -      03_10_01                                
 288              (3,10,2)        NODELAY   -7.00       30.0       1.00       6.000E-04  6.000E-06  0.451         -          -      03_10_02                                
 289              (3,10,3)        NODELAY   -7.00       30.0       1.00       6.000E-04  6.000E-06  0.451         -          -      03_10_03                                
 290              (3,10,4)        NODELAY   -7.00       30.0       1.00       6.000E-04  6.000E-06  0.451         -          -      03_10_04                                
 291              (3,10,5)        NODELAY   -7.00       30.0       1.00       6.000E-04  6.000E-06  0.451         -          -      03_10_05                                
 292              (3,10,6)        NODELAY   -7.00       30.0       1.00       6.000E-04  6.000E-06  0.451         -          -      03_10_06                                
 293              (3,10,7)        NODELAY   -7.00       30.0       1.00       6.000E-04  6.000E-06  0.451         -          -      03_10_07                                
 294              (3,10,8)        NODELAY   -7.00       30.0       1.00       6.000E-04  6.000E-06  0.451         -          -      03_10_08                                
 295              (3,10,9)        NODELAY   -7.00       30.0       1.00       6.000E-04  6.000E-06  0.451         -          -      03_10_09                                
 296             (3,10,10)        NODELAY   -7.00       30.0       1.00       6.000E-04  6.000E-06  0.451         -          -      03_10_10                                
 ---------------------------------------------------------------------------------------------------------------------------------------------------------------------------


    BINARY GRID INFORMATION WILL BE WRITTEN TO:
      UNIT NUMBER: 1020
      FILE NAME: csub_sub03a.dis.grb

 OPENED csub_sub03a.dis.grb
 FILE TYPE:DATA(BINARY)   UNIT 1020   STATUS:REPLACE             
 FORMAT:UNFORMATTED            ACCESS:STREAM              
 ACTION:READWRITE           

      THE LAST TIME STEP WILL BE PRINTED
      THE LAST TIME STEP WILL BE PRINTED
 # File generated by Flopy version 3.5.0.dev0 on 10/30/2023 at 09:02:45.

 PROCESSING OC OPTIONS

    BUDGET INFORMATION WILL BE WRITTEN TO:
      UNIT NUMBER: 1021
      FILE NAME: csub_sub03a.cbc

 OPENED csub_sub03a.cbc
 FILE TYPE:DATA(BINARY)   UNIT 1021   STATUS:REPLACE             
 FORMAT:UNFORMATTED            ACCESS:STREAM              
 ACTION:READWRITE           

    HEAD INFORMATION WILL BE WRITTEN TO:
      UNIT NUMBER: 1022
      FILE NAME: csub_sub03a.hds

 OPENED csub_sub03a.hds
 FILE TYPE:DATA(BINARY)   UNIT 1022   STATUS:REPLACE             
 FORMAT:UNFORMATTED            ACCESS:STREAM              
 ACTION:READWRITE           

 END OF OC OPTIONS

start timestep kper="1" kstp="1" mode="normal"


 BEGIN READING OUTPUT CONTROL FOR STRESS PERIOD 1
      THE LAST TIME STEP WILL BE SAVED
      THE LAST TIME STEP WILL BE SAVED
      THE LAST TIME STEP WILL BE PRINTED
      THE LAST TIME STEP WILL BE PRINTED

 END READING OUTPUT CONTROL FOR STRESS PERIOD 1


 PROCESSING STORAGE PERIOD DATA
 END PROCESSING STORAGE PERIOD DATA


 STRESS PERIOD 1 IS STEADY-STATE


 REUSING CSUBS FROM LAST STRESS PERIOD

 REUSING WELS FROM LAST STRESS PERIOD
 UBDSV1 SAVING  CSUB-CGELASTIC  ON UNIT   1021 AT TIME STEP      1, STRESS PERIOD      1
 UBDSV06 SAVING    CSUB-ELASTIC  IN MODEL CSUB_SUB03A      PACKAGE CSUB_SUB03A     CONNECTED TO MODEL CSUB_SUB03A      PACKAGE CSUB             ON UNIT   1021 AT TIME STEP      1, STRESS PERIOD      1
 UBDSV06 SAVING  CSUB-INELASTIC  IN MODEL CSUB_SUB03A      PACKAGE CSUB_SUB03A     CONNECTED TO MODEL CSUB_SUB03A      PACKAGE CSUB             ON UNIT   1021 AT TIME STEP      1, STRESS PERIOD      1
 UBDSV1 SAVING  CSUB-WATERCOMP  ON UNIT   1021 AT TIME STEP      1, STRESS PERIOD      1

 CSUB-COMPACTION WILL BE SAVED ON UNIT 1017 AT END OF TIME STEP    1, STRESS PERIOD    1
1
  HEAD IN LAYER   1 AT END OF TIME STEP   1 IN STRESS PERIOD    1
  ---------------------------------------------------------------------------

                1               2               3               4               5               6               7               8               9              10
[...]
   2     -55.9281        -56.1898        -56.7055        -57.4446        -58.3205        -59.1018        -59.1860        -58.7863        -58.3783        -58.1436    
   3     -55.5040        -55.8960        -56.7320        -58.1383        -60.3788        -63.9985        -63.1489        -60.4482        -58.9777        -58.3223    
   4     -54.1596        -54.4782        -55.1331        -56.1577        -57.5953        -59.4720        -59.2098        -57.8662        -56.9880        -56.5571    
   5     -52.1717        -52.3487        -52.6906        -53.1656        -53.7039        -54.1616        -54.2546        -54.0723        -53.8562        -53.7237    
   6     -50.0821        -50.1666        -50.3245        -50.5313        -50.7487        -50.9264        -51.0175        -51.0293        -51.0047        -50.9819    
   7     -48.2346        -48.2735        -48.3455        -48.4389        -48.5372        -48.6231        -48.6839        -48.7179        -48.7325        -48.7370    
   8     -46.7889        -46.8074        -46.8419        -46.8872        -46.9362        -46.9820        -47.0195        -47.0463        -47.0629        -47.0708    
   9     -45.8085        -45.8185        -45.8371        -45.8618        -45.8892        -45.9161        -45.9397        -45.9581        -45.9706        -45.9769    
  10     -45.3152        -45.3218        -45.3343        -45.3510        -45.3700        -45.3891        -45.4065        -45.4207        -45.4307        -45.4358    

 HEAD WILL BE SAVED ON UNIT 1022 AT END OF TIME STEP    6, STRESS PERIOD   30


  VOLUME BUDGET FOR ENTIRE MODEL AT END OF TIME STEP    6, STRESS PERIOD  30
  ---------------------------------------------------------------------------------------------------

     CUMULATIVE VOLUME      L**3       RATES FOR THIS TIME STEP      L**3/T          PACKAGE NAME    
     ------------------                 ------------------------                     ----------------

           IN:                                      IN:
           ---                                      ---
              STO-SS =           0.0000                STO-SS =           0.0000     STORAGE                          
      CSUB-CGELASTIC =     7430796.4109        CSUB-CGELASTIC =         281.0257     CSUB                             
        CSUB-ELASTIC =     1637923.1116          CSUB-ELASTIC =           4.6935     CSUB                             
      CSUB-INELASTIC =   196729261.3555        CSUB-INELASTIC =       14220.5722     CSUB                             
      CSUB-WATERCOMP =           0.0000        CSUB-WATERCOMP =           0.0000     CSUB                             
                 WEL =           0.0000                   WEL =           0.0000     WEL_0                            
                RCHA =   256432500.0000                  RCHA =       27000.0000     RCHA_0                           
                 CHD =     5954733.5664                   CHD =         437.0917     CHD_0                            

            TOTAL IN =   468185214.4443              TOTAL IN =       41943.3831

          OUT:                                     OUT:
          ----                                     ----
              STO-SS =           0.0000                STO-SS =           0.0000     STORAGE                          
      CSUB-CGELASTIC =      548112.8185        CSUB-CGELASTIC =           0.0000     CSUB                             
        CSUB-ELASTIC =      244061.3137          CSUB-ELASTIC =           0.0000     CSUB                             
      CSUB-INELASTIC =           0.0000        CSUB-INELASTIC =           0.0000     CSUB                             
      CSUB-WATERCOMP =           0.0000        CSUB-WATERCOMP =           0.0000     CSUB                             
                 WEL =   317767500.0000                   WEL =       30000.0000     WEL_0                            
                RCHA =           0.0000                  RCHA =           0.0000     RCHA_0                           
                 CHD =   149625540.3050                   CHD =       11943.3831     CHD_0                            

           TOTAL OUT =   468185214.4372             TOTAL OUT =       41943.3831

            IN - OUT =       7.0949E-03              IN - OUT =       6.9344E-07

 PERCENT DISCREPANCY =           0.00     PERCENT DISCREPANCY =           0.00




         TIME SUMMARY AT END OF TIME STEP    6 IN STRESS PERIOD   30
                    SECONDS     MINUTES      HOURS       DAYS        YEARS
                    -----------------------------------------------------------
   TIME STEP LENGTH 9.18555E+06 1.53093E+05  2551.5      106.31     0.29107    
 STRESS PERIOD TIME 3.15576E+07 5.25960E+05  8766.0      365.25      1.0000    
         TOTAL TIME 9.15257E+08 1.52543E+07 2.54238E+05  10593.      29.003    


end timestep


start timestep kper="31" kstp="1" mode="normal"


 OUTPUT CONTROL FOR STRESS PERIOD 31 IS REPEATED USING SETTINGS FROM A PREVIOUS STRESS PERIOD.


 STRESS PERIOD 31 IS TRANSIENT


 REUSING CSUBS FROM LAST STRESS PERIOD

 REUSING WELS FROM LAST STRESS PERIOD

 REUSING RCHS FROM LAST STRESS PERIOD

 REUSING CHDS FROM LAST STRESS PERIOD

end timestep


start timestep kper="31" kstp="2" mode="normal"


end timestep


start timestep kper="31" kstp="3" mode="normal"


end timestep


start timestep kper="31" kstp="4" mode="normal"


end timestep


start timestep kper="31" kstp="5" mode="normal"


end timestep


start timestep kper="31" kstp="6" mode="normal"

 UBDSV1 SAVING  CSUB-CGELASTIC  ON UNIT   1021 AT TIME STEP      6, STRESS PERIOD     31
 UBDSV06 SAVING    CSUB-ELASTIC  IN MODEL CSUB_SUB03A      PACKAGE CSUB_SUB03A     CONNECTED TO MODEL CSUB_SUB03A      PACKAGE CSUB             ON UNIT   1021 AT TIME STEP      6, STRESS PERIOD     31
 UBDSV06 SAVING  CSUB-INELASTIC  IN MODEL CSUB_SUB03A      PACKAGE CSUB_SUB03A     CONNECTED TO MODEL CSUB_SUB03A      PACKAGE CSUB             ON UNIT   1021 AT TIME STEP      6, STRESS PERIOD     31
 UBDSV1 SAVING  CSUB-WATERCOMP  ON UNIT   1021 AT TIME STEP      6, STRESS PERIOD     31

 WEL PACKAGE (WEL_0) FLOW RATES   PERIOD     31   STEP        6
 -----------------------------------------------
   NUMBER   CELLID                    RATE      
 -----------------------------------------------
     1      (3,3,6)              -14000.000     
     2      (3,3,7)              -8000.0000     
     3      (3,4,6)              -5000.0000     
     4      (3,4,7)              -3000.0000     
 -----------------------------------------------




 CSUB-COMPACTION WILL BE SAVED ON UNIT 1017 AT END OF TIME STEP    6, STRESS PERIOD   31
1
  HEAD IN LAYER   1 AT END OF TIME STEP   6 IN STRESS PERIOD   31
  ---------------------------------------------------------------------------

                1               2               3               4               5               6               7               8               9              10
 ................................................................................................................................................................
   1      15.4222         14.9912         14.1742         13.6471         13.3733         13.3389         13.5468         14.0167         14.7910         15.1988    
   2      14.3479         13.7353         13.2092         12.8254         12.6061         12.5600         12.6900         12.9935         13.4560         14.0317    
   3      12.9197         12.3229         11.8631         11.5352         11.3375         11.2697         11.3328         11.5280         11.8621         12.3627    
   4      11.0658         10.5463         10.1738         9.91162         9.74276         9.65778         9.64826         9.70087         9.79268         9.88165    
   5      8.46626         8.35576         8.21808         8.09136         7.99291         7.92918         7.89966         7.89796         7.91249         7.92772    
   6      6.46985         6.43495         6.38008         6.32059         6.26794         6.22872         6.20494         6.19463         6.19304         6.19444    
   7      4.76256         4.74300         4.70974         4.67211         4.63929         4.61700         4.60699         4.60713         4.61205         4.61618    
   8      3.27314         3.24440         3.19547         3.14303         3.10738         3.09525         3.10763         3.13983         3.17371         3.19440    
   9      2.02969         1.95658         1.82508         1.67657         1.61127         1.60539         1.65905         1.79603         1.91864         1.98694    
  10      1.20265         1.02574        0.645749         0.00000         0.00000         0.00000         0.00000        0.633071         1.00451         1.17707    
1
  HEAD IN LAYER   2 AT END OF TIME STEP   6 IN STRESS PERIOD   31
  ---------------------------------------------------------------------------

                1               2               3               4               5               6               7               8               9              10
 ................................................................................................................................................................
   1     -18.3012        -18.3092        -18.3247        -18.3443        -18.3652        -18.3852        -18.4033        -18.4195        -18.4356        -18.4543    
   2     -18.3061        -17.8595        -18.2626        -18.7806        -19.2934        -19.6813        -19.6622        -19.3338        -18.9044        -18.5457    
   3     -18.3366        -18.3229        -18.9150        -19.7501        -20.9202        -22.5001        -22.1443        -20.8590        -19.8662        -18.6351    
   4     -18.3796        -18.4845        -18.9667        -19.5880        -20.3624        -21.2370        -21.1440        -20.5067        -19.8993        -18.6985    
   5     -18.4289        -18.5158        -18.7465        -19.0373        -19.3455        -19.5972        -19.6565        -19.5648        -19.3763        -18.7286    
   6     -18.4781        -18.4296        -18.5178        -18.6456        -18.7762        -18.8811        -18.9364        -18.9461        -18.9175        -18.7385    
   7     -18.5296        -18.3815        -18.4067        -18.4687        -18.5324        -18.5846        -18.6184        -18.6354        -18.6566        -18.7419    
   8     -18.5860        -18.4433        -18.4616        -18.5096        -18.5518        -18.5798        -18.5904        -18.5870        -18.6009        -18.7474    
   9     -18.6478        -18.6256        -18.6943        -18.7800        -18.8280        -18.8436        -18.8255        -18.7659        -18.7186        -18.7578    
  10     -18.7122        -18.7282        -18.7437        -18.7575        -18.7677        -18.7743        -18.7773        -18.7766        -18.7741        -18.7710    
1
  HEAD IN LAYER   3 AT END OF TIME STEP   6 IN STRESS PERIOD   31
  ---------------------------------------------------------------------------

                1               2               3               4               5               6               7               8               9              10
 ................................................................................................................................................................
   1     -56.9050        -57.0759        -57.3955        -57.8157        -58.2579        -58.6150        -58.7818        -58.7796        -58.7077        -58.6497    
   2     -56.8748        -57.1365        -57.6523        -58.3914        -59.2674        -60.0487        -60.1329        -59.7331        -59.3251        -59.0904    
   3     -56.4506        -56.8426        -57.6787        -59.0850        -61.3255        -64.9452        -64.0956        -61.3949        -59.9244        -59.2690    
   4     -55.1059        -55.4245        -56.0794        -57.1041        -58.5417        -60.4184        -60.1562        -58.8126        -57.9344        -57.5034    
   5     -53.1175        -53.2945        -53.6365        -54.1115        -54.6499        -55.1076        -55.2006        -55.0183        -54.8021        -54.6697    
   6     -51.0274        -51.1120        -51.2699        -51.4768        -51.6941        -51.8718        -51.9630        -51.9747        -51.9502        -51.9273    
   7     -49.1794        -49.2183        -49.2904        -49.3838        -49.4821        -49.5680        -49.6289        -49.6629        -49.6774        -49.6819    
   8     -47.7333        -47.7518        -47.7863        -47.8316        -47.8806        -47.9264        -47.9639        -47.9908        -48.0074        -48.0152    
   9     -46.7526        -46.7625        -46.7811        -46.8058        -46.8333        -46.8602        -46.8837        -46.9022        -46.9147        -46.9210    
  10     -46.2591        -46.2657        -46.2782        -46.2949        -46.3138        -46.3330        -46.3504        -46.3646        -46.3745        -46.3797    

 HEAD WILL BE SAVED ON UNIT 1022 AT END OF TIME STEP    6, STRESS PERIOD   31


  VOLUME BUDGET FOR ENTIRE MODEL AT END OF TIME STEP    6, STRESS PERIOD  31
  ---------------------------------------------------------------------------------------------------

     CUMULATIVE VOLUME      L**3       RATES FOR THIS TIME STEP      L**3/T          PACKAGE NAME    
     ------------------                 ------------------------                     ----------------

           IN:                                      IN:
           ---                                      ---
              STO-SS =           0.0000                STO-SS =           0.0000     STORAGE                          
      CSUB-CGELASTIC =     7532058.1446        CSUB-CGELASTIC =         274.7357     CSUB                             
        CSUB-ELASTIC =     1639623.4788          CSUB-ELASTIC =           4.6293     CSUB                             
      CSUB-INELASTIC =   201861300.8484        CSUB-INELASTIC =       13937.7327     CSUB                             
      CSUB-WATERCOMP =           0.0000        CSUB-WATERCOMP =           0.0000     CSUB                             
                 WEL =           0.0000                   WEL =           0.0000     WEL_0                            
                RCHA =   266294250.0000                  RCHA =       27000.0000     RCHA_0                           
                 CHD =     6117313.2641                   CHD =         450.4607     CHD_0                            

            TOTAL IN =   483444545.7359              TOTAL IN =       41667.5584

          OUT:                                     OUT:
          ----                                     ----
              STO-SS =           0.0000                STO-SS =           0.0000     STORAGE                          
      CSUB-CGELASTIC =      548112.8185        CSUB-CGELASTIC =           0.0000     CSUB                             
        CSUB-ELASTIC =      244061.3137          CSUB-ELASTIC =           0.0000     CSUB                             
      CSUB-INELASTIC =           0.0000        CSUB-INELASTIC =           0.0000     CSUB                             
      CSUB-WATERCOMP =           0.0000        CSUB-WATERCOMP =           0.0000     CSUB                             
                 WEL =   328725000.0000                   WEL =       30000.0000     WEL_0                            
                RCHA =           0.0000                  RCHA =           0.0000     RCHA_0                           
                 CHD =   153927371.5963                   CHD =       11667.5584     CHD_0                            

           TOTAL OUT =   483444545.7285             TOTAL OUT =       41667.5584

            IN - OUT =       7.4243E-03              IN - OUT =       6.7805E-07

 PERCENT DISCREPANCY =           0.00     PERCENT DISCREPANCY =           0.00




         TIME SUMMARY AT END OF TIME STEP    6 IN STRESS PERIOD   31
                    SECONDS     MINUTES      HOURS       DAYS        YEARS
                    -----------------------------------------------------------
   TIME STEP LENGTH 9.18555E+06 1.53093E+05  2551.5      106.31     0.29107    
 STRESS PERIOD TIME 3.15576E+07 5.25960E+05  8766.0      365.25      1.0000    
         TOTAL TIME 9.46814E+08 1.57802E+07 2.63004E+05  10958.      30.003    


end timestep


 LARGEST 20 OF 296 INTERBED STRAIN VALUES SHOWN

 CSUB PACKAGE INTERBED STRAIN SUMMARY
 ----------------------------------------------------------------------------------------------------------------------
  INTERBED   INTERBED                         INITIAL       FINAL        TOTAL                    PERCENT              
   NUMBER      TYPE    CELLID                THICKNESS    THICKNESS    COMPACTION  FINAL STRAIN  COMPACTION     FLAG   
 ----------------------------------------------------------------------------------------------------------------------
    222      no-delay  (3,3,6)               30.000       30.000       1.0466       3.48869E-02  3.4887        *>=1%   
    223      no-delay  (3,3,7)               30.000       30.000       1.0313       3.43772E-02  3.4377        *>=1%   
    224      no-delay  (3,3,8)               30.000       30.000       0.98270      3.27567E-02  3.2757        *>=1%   
    221      no-delay  (3,3,5)               30.000       30.000       0.98145      3.27151E-02  3.2715        *>=1%   
    232      no-delay  (3,4,6)               30.000       30.000       0.96511      3.21703E-02  3.2170        *>=1%   
    233      no-delay  (3,4,7)               30.000       30.000       0.96039      3.20130E-02  3.2013        *>=1%   
    213      no-delay  (3,2,7)               30.000       30.000       0.96000      3.19999E-02  3.2000        *>=1%   
    212      no-delay  (3,2,6)               30.000       30.000       0.95848      3.19494E-02  3.1949        *>=1%   
    225      no-delay  (3,3,9)               30.000       30.000       0.95623      3.18744E-02  3.1874        *>=1%   
    214      no-delay  (3,2,8)               30.000       30.000       0.95280      3.17600E-02  3.1760        *>=1%   
    215      no-delay  (3,2,9)               30.000       30.000       0.94546      3.15152E-02  3.1515        *>=1%   
    226      no-delay  (3,3,10)              30.000       30.000       0.94443      3.14811E-02  3.1481        *>=1%   
    211      no-delay  (3,2,5)               30.000       30.000       0.94442      3.14806E-02  3.1481        *>=1%   
    216      no-delay  (3,2,10)              30.000       30.000       0.94123      3.13743E-02  3.1374        *>=1%   
    220      no-delay  (3,3,4)               30.000       30.000       0.94112      3.13708E-02  3.1371        *>=1%   
    234      no-delay  (3,4,8)               30.000       30.000       0.93620      3.12068E-02  3.1207        *>=1%   
    203      no-delay  (3,1,7)               30.000       30.000       0.93568      3.11894E-02  3.1189        *>=1%   
    204      no-delay  (3,1,8)               30.000       30.000       0.93564      3.11880E-02  3.1188        *>=1%   
    205      no-delay  (3,1,9)               30.000       30.000       0.93435      3.11449E-02  3.1145        *>=1%   
    206      no-delay  (3,1,10)              30.000       30.000       0.93330      3.11101E-02  3.1110        *>=1%   
 ----------------------------------------------------------------------------------------------------------------------



 PERCENT COMPACTION IS GREATER THAN OR EQUAL TO 1 PERCENT IN 100 OF 296 INTERBED(S).
 USE THE STRAIN_CSV_INTERBED OPTION TO OUTPUT A CSV FILE WITH PERCENT COMPACTION 
 VALUES FOR ALL INTERBEDS.

 COARSE-GRAINED STORAGE PERCENT COMPACTION WAS LESS THAN 1 PERCENT IN ALL CELLS
