                                  MODFLOW-2005     
      U.S. GEOLOGICAL SURVEY MODULAR FINITE-DIFFERENCE GROUND-WATER FLOW MODEL
                            VERSION 1.11.00 8/8/2013

 LIST FILE: testsfr2_tab.lst
                         UNIT   12

 OPENING testsfr2_tab.dis
 FILE TYPE:DIS   UNIT   13   STATUS:OLD    
 FORMAT:FORMATTED              ACCESS:SEQUENTIAL          

 OPENING testsfr2_tab.ghb
 FILE TYPE:GHB   UNIT   15   STATUS:OLD    
 FORMAT:FORMATTED              ACCESS:SEQUENTIAL          

 OPENING testsfr2_tab.bs6
 FILE TYPE:BAS6   UNIT   41   STATUS:OLD    
 FORMAT:FORMATTED              ACCESS:SEQUENTIAL          

 OPENING testsfr2_tab.lpf
 FILE TYPE:LPF   UNIT   42   STATUS:OLD    
 FORMAT:FORMATTED              ACCESS:SEQUENTIAL          

 OPENING testsfr2_tab.pcg
 FILE TYPE:PCG   UNIT   43   STATUS:OLD    
 FORMAT:FORMATTED              ACCESS:SEQUENTIAL          

 OPENING testsfr2_tab.oc
 FILE TYPE:OC   UNIT   44   STATUS:OLD    
 FORMAT:FORMATTED              ACCESS:SEQUENTIAL          

 OPENING testsfr2_tab_ICALC2.sfr
 FILE TYPE:SFR   UNIT   45   STATUS:OLD    
 FORMAT:FORMATTED              ACCESS:SEQUENTIAL          

 OPENING testsfr2.hds
 FILE TYPE:DATA(BINARY)   UNIT  161   STATUS:UNKNOWN
 FORMAT:UNFORMATTED            ACCESS:STREAM              

 OPENING testsfr2.lpf.cbc
 FILE TYPE:DATA(BINARY)   UNIT  162   STATUS:UNKNOWN
 FORMAT:UNFORMATTED            ACCESS:STREAM              

 OPENING testsfr2.ghb.cbc
 FILE TYPE:DATA(BINARY)   UNIT  163   STATUS:UNKNOWN
 FORMAT:UNFORMATTED            ACCESS:STREAM              

 OPENING testsfr2_tab.gag
 FILE TYPE:GAGE   UNIT   46   STATUS:OLD    
 FORMAT:FORMATTED              ACCESS:SEQUENTIAL          

 OPENING testsfr2_tab.gg1
 FILE TYPE:DATA   UNIT   83   STATUS:UNKNOWN
 FORMAT:FORMATTED              ACCESS:SEQUENTIAL          

 OPENING testsfr2_tab.gg2
 FILE TYPE:DATA   UNIT   84   STATUS:UNKNOWN
 FORMAT:FORMATTED              ACCESS:SEQUENTIAL          

 OPENING testsfr2_tab.gg3
 FILE TYPE:DATA   UNIT   85   STATUS:UNKNOWN
 FORMAT:FORMATTED              ACCESS:SEQUENTIAL          

 OPENING testsfr2_tab.gg4
 FILE TYPE:DATA   UNIT   86   STATUS:UNKNOWN
 FORMAT:FORMATTED              ACCESS:SEQUENTIAL          

 OPENING testsfr2_tab.gg5
 FILE TYPE:DATA   UNIT   87   STATUS:UNKNOWN
 FORMAT:FORMATTED              ACCESS:SEQUENTIAL          

 OPENING testsfr2_tab.gg6
 FILE TYPE:DATA   UNIT   88   STATUS:UNKNOWN
 FORMAT:FORMATTED              ACCESS:SEQUENTIAL          

 OPENING testsfr2_tab.gg7
 FILE TYPE:DATA   UNIT   89   STATUS:UNKNOWN
 FORMAT:FORMATTED              ACCESS:SEQUENTIAL          

 OPENING testsfr2_tab.gg8
 FILE TYPE:DATA   UNIT   90   STATUS:UNKNOWN
 FORMAT:FORMATTED              ACCESS:SEQUENTIAL          

 OPENING testsfr2_tab.tab
 FILE TYPE:DATA   UNIT   55   STATUS:UNKNOWN
 FORMAT:FORMATTED              ACCESS:SEQUENTIAL          

 BAS -- BASIC PACKAGE, VERSION 7, 5/2/2005 INPUT READ FROM UNIT   41

 MODFLOW was compiled using uniform precision
 Precision of REAL and DOUBLE PRECISION variables:          15

 DISCRETIZATION INPUT DATA READ FROM UNIT   13
 # Discretization file input for hypothetical test simulation
 # Units: seconds, meters
    1 LAYERS         7 ROWS       100 COLUMNS
   50 STRESS PERIOD(S) IN SIMULATION
 MODEL TIME UNIT IS SECONDS
 MODEL LENGTH UNIT IS METERS
  Confining bed flag for each layer:
   0

                     DELR =   200.000    



                               DELC
 READING ON UNIT   13 WITH FORMAT: (FREE)              
   90.000       90.000       90.000       60.000       90.000    
   90.000       90.000    



           TOP ELEVATION OF LAYER 1
 READING ON UNIT   13 WITH FORMAT: (FREE)              

           1          2          3          4          5          6          7          8          9         10         11
          12         13         14         15         16         17         18         19         20         21         22
          23         24         25         26         27         28         29         30         31         32         33
          34         35         36         37         38         39         40         41         42         43         44
          45         46         47         48         49         50         51         52         53         54         55
          56         57         58         59         60         61         62         63         64         65         66
          67         68         69         70         71         72         73         74         75         76         77
          78         79         80         81         82         83         84         85         86         87         88
          89         90         91         92         93         94         95         96         97         98         99
         100
 .........................................................................................................................
   1    125.       124.       124.       124.       124.       123.       123.       123.       123.       122.       122.    
        122.       122.       121.       121.       121.       121.       120.       120.       120.       120.       119.    
        119.       119.       119.       118.       118.       118.       118.       117.       117.       117.       117.    
        116.       116.       116.       116.       115.       115.       115.       115.       114.       114.       114.    
        114.       113.       113.       113.       113.       112.       112.       112.       112.       111.       111.    
        111.       111.       110.       110.       110.       110.       109.       109.       109.       109.       108.    
        108.       108.       108.       107.       107.       107.       107.       106.       106.       106.       106.    
        105.       105.       105.       105.       104.       104.       104.       104.       103.       103.       103.    
        103.       102.       102.       102.       102.       101.       101.       101.       101.       100.       100.    
        100.    
   2    125.       124.       124.       124.       124.       123.       123.       123.       123.       122.       122.    
        122.       122.       121.       121.       121.       121.       120.       120.       120.       120.       119.    
        119.       119.       119.       118.       118.       118.       118.       117.       117.       117.       117.    
        116.       116.       116.       116.       115.       115.       115.       115.       114.       114.       114.    
        114.       113.       113.       113.       113.       112.       112.       112.       112.       111.       111.    
        111.       111.       110.       110.       110.       110.       109.       109.       109.       109.       108.    
        108.       108.       108.       107.       107.       107.       107.       106.       106.       106.       106.    
        105.       105.       105.       105.       104.       104.       104.       104.       103.       103.       103.    
        103.       102.       102.       102.       102.       101.       101.       101.       101.       100.       100.    
        100.    
   3    125.       124.       124.       124.       124.       123.       123.       123.       123.       122.       122.    
        122.       122.       121.       121.       121.       121.       120.       120.       120.       120.       119.    
        119.       119.       119.       118.       118.       118.       118.       117.       117.       117.       117.    
        116.       116.       116.       116.       115.       115.       115.       115.       114.       114.       114.    
        114.       113.       113.       113.       113.       112.       112.       112.       112.       111.       111.    
        111.       111.       110.       110.       110.       110.       109.       109.       109.       109.       108.    
        108.       108.       108.       107.       107.       107.       107.       106.       106.       106.       106.    
        105.       105.       105.       105.       104.       104.       104.       104.       103.       103.       103.    
        103.       102.       102.       102.       102.       101.       101.       101.       101.       100.       100.    
        100.    
   4    125.       124.       124.       124.       124.       123.       123.       123.       123.       122.       122.    
        122.       122.       121.       121.       121.       121.       120.       120.       120.       120.       119.    
        119.       119.       119.       118.       118.       118.       118.       117.       117.       117.       117.    
        116.       116.       116.       116.       115.       115.       115.       115.       114.       114.       114.    
        114.       113.       113.       113.       113.       112.       112.       112.       112.       111.       111.    
        111.       111.       110.       110.       110.       110.       109.       109.       109.       109.       108.    
        108.       108.       108.       107.       107.       107.       107.       106.       106.       106.       106.    
        105.       105.       105.       105.       104.       104.       104.       104.       103.       103.       103.    
        103.       102.       102.       102.       102.       101.       101.       101.       101.       100.       100.    
        100.    
   5    125.       124.       124.       124.       124.       123.       123.       123.       123.       122.       122.    
        122.       122.       121.       121.       121.       121.       120.       120.       120.       120.       119.    
        119.       119.       119.       118.       118.       118.       118.       117.       117.       117.       117.    
        116.       116.       116.       116.       115.       115.       115.       115.       114.       114.       114.    
        114.       113.       113.       113.       113.       112.       112.       112.       112.       111.       111.    
        111.       111.       110.       110.       110.       110.       109.       109.       109.       109.       108.    
        108.       108.       108.       107.       107.       107.       107.       106.       106.       106.       106.    
        105.       105.       105.       105.       104.       104.       104.       104.       103.       103.       103.    
        103.       102.       102.       102.       102.       101.       101.       101.       101.       100.       100.    
        100.    
   6    125.       124.       124.       124.       124.       123.       123.       123.       123.       122.       122.    
        122.       122.       121.       121.       121.       121.       120.       120.       120.       120.       119.    
        119.       119.       119.       118.       118.       118.       118.       117.       117.       117.       117.    
        116.       116.       116.       116.       115.       115.       115.       115.       114.       114.       114.    
        114.       113.       113.       113.       113.       112.       112.       112.       112.       111.       111.    
        111.       111.       110.       110.       110.       110.       109.       109.       109.       109.       108.    
        108.       108.       108.       107.       107.       107.       107.       106.       106.       106.       106.    
        105.       105.       105.       105.       104.       104.       104.       104.       103.       103.       103.    
        103.       102.       102.       102.       102.       101.       101.       101.       101.       100.       100.    
        100.    
   7    125.       124.       124.       124.       124.       123.       123.       123.       123.       122.       122.    
        122.       122.       121.       121.       121.       121.       120.       120.       120.       120.       119.    
        119.       119.       119.       118.       118.       118.       118.       117.       117.       117.       117.    
        116.       116.       116.       116.       115.       115.       115.       115.       114.       114.       114.    
        114.       113.       113.       113.       113.       112.       112.       112.       112.       111.       111.    
        111.       111.       110.       110.       110.       110.       109.       109.       109.       109.       108.    
        108.       108.       108.       107.       107.       107.       107.       106.       106.       106.       106.    
        105.       105.       105.       105.       104.       104.       104.       104.       103.       103.       103.    
        103.       102.       102.       102.       102.       101.       101.       101.       101.       100.       100.    
        100.    

   MODEL LAYER BOTTOM EL. =   0.00000     FOR LAYER   1


 STRESS PERIOD     LENGTH       TIME STEPS     MULTIPLIER FOR DELT    SS FLAG
 ----------------------------------------------------------------------------
        1         2592000.         30                    1.100         TR
        2         2592000.         30                    1.100         TR
        3         2592000.         30                    1.100         TR
        4         2592000.         30                    1.100         TR
        5         2592000.         30                    1.100         TR
        6         2592000.         30                    1.100         TR
        7         2592000.         30                    1.100         TR
        8         2592000.         30                    1.100         TR
        9         2592000.         30                    1.100         TR
       10         2592000.         30                    1.100         TR
       11         2592000.         30                    1.100         TR
       12         2592000.         30                    1.100         TR
       13         2592000.         30                    1.100         TR
       14         2592000.         30                    1.100         TR
       15         2592000.         30                    1.100         TR
       16         2592000.         30                    1.100         TR
       17         2592000.         30                    1.100         TR
       18         2592000.         30                    1.100         TR
       19         2592000.         30                    1.100         TR
       20         2592000.         30                    1.100         TR
       21         2592000.         30                    1.100         TR
       22         2592000.         30                    1.100         TR
       23         2592000.         30                    1.100         TR
       24         2592000.         30                    1.100         TR
       25         2592000.         30                    1.100         TR
       26         2592000.         30                    1.100         TR
       27         2592000.         30                    1.100         TR
       28         2592000.         30                    1.100         TR
       29         2592000.         30                    1.100         TR
       30         2592000.         30                    1.100         TR
       31         2592000.         30                    1.100         TR
       32         2592000.         30                    1.100         TR
       33         2592000.         30                    1.100         TR
       34         2592000.         30                    1.100         TR
       35         2592000.         30                    1.100         TR
       36         2592000.         30                    1.100         TR
       37         2592000.         30                    1.100         TR
       38         2592000.         30                    1.100         TR
       39         2592000.         30                    1.100         TR
       40         2592000.         30                    1.100         TR
       41         2592000.         30                    1.100         TR
       42         2592000.         30                    1.100         TR
       43         2592000.         30                    1.100         TR
       44         2592000.         30                    1.100         TR
       45         2592000.         30                    1.100         TR
       46         2592000.         30                    1.100         TR
       47         2592000.         30                    1.100         TR
       48         2592000.         30                    1.100         TR
       49         2592000.         30                    1.100         TR
       50         2592000.         30                    1.100         TR

 TRANSIENT SIMULATION




 # BAS6 Package input file for hypothetical test simulation                      
 # Test of SFR2 Package                                                          
 THE FREE FORMAT OPTION HAS BEEN SELECTED



                     BOUNDARY ARRAY FOR LAYER   1
 READING ON UNIT   41 WITH FORMAT: (30I2)              

      1 2 3 4 5 6 7 8 9101112131415161718192021222324252627282930313233343536373839404142434445464748495051525354555657585960
     61626364656667686970717273747576777879808182838485868788899091929394959697989100
 ............................................................................................................................
   1  1 1 1 1 1 1 1 1 1 1 1 1 1 1 1 1 1 1 1 1 1 1 1 1 1 1 1 1 1 1 1 1 1 1 1 1 1 1 1 1 1 1 1 1 1 1 1 1 1 1 1 1 1 1 1 1 1 1 1 1
      1 1 1 1 1 1 1 1 1 1 1 1 1 1 1 1 1 1 1 1 1 1 1 1 1 1 1 1 1 1 1 1 1 1 1 1 1 1 1 1
   2  1 1 1 1 1 1 1 1 1 1 1 1 1 1 1 1 1 1 1 1 1 1 1 1 1 1 1 1 1 1 1 1 1 1 1 1 1 1 1 1 1 1 1 1 1 1 1 1 1 1 1 1 1 1 1 1 1 1 1 1
      1 1 1 1 1 1 1 1 1 1 1 1 1 1 1 1 1 1 1 1 1 1 1 1 1 1 1 1 1 1 1 1 1 1 1 1 1 1 1 1
   3  1 1 1 1 1 1 1 1 1 1 1 1 1 1 1 1 1 1 1 1 1 1 1 1 1 1 1 1 1 1 1 1 1 1 1 1 1 1 1 1 1 1 1 1 1 1 1 1 1 1 1 1 1 1 1 1 1 1 1 1
      1 1 1 1 1 1 1 1 1 1 1 1 1 1 1 1 1 1 1 1 1 1 1 1 1 1 1 1 1 1 1 1 1 1 1 1 1 1 1 1
   4  1 1 1 1 1 1 1 1 1 1 1 1 1 1 1 1 1 1 1 1 1 1 1 1 1 1 1 1 1 1 1 1 1 1 1 1 1 1 1 1 1 1 1 1 1 1 1 1 1 1 1 1 1 1 1 1 1 1 1 1
      1 1 1 1 1 1 1 1 1 1 1 1 1 1 1 1 1 1 1 1 1 1 1 1 1 1 1 1 1 1 1 1 1 1 1 1 1 1 1 1
   5  1 1 1 1 1 1 1 1 1 1 1 1 1 1 1 1 1 1 1 1 1 1 1 1 1 1 1 1 1 1 1 1 1 1 1 1 1 1 1 1 1 1 1 1 1 1 1 1 1 1 1 1 1 1 1 1 1 1 1 1
      1 1 1 1 1 1 1 1 1 1 1 1 1 1 1 1 1 1 1 1 1 1 1 1 1 1 1 1 1 1 1 1 1 1 1 1 1 1 1 1
   6  1 1 1 1 1 1 1 1 1 1 1 1 1 1 1 1 1 1 1 1 1 1 1 1 1 1 1 1 1 1 1 1 1 1 1 1 1 1 1 1 1 1 1 1 1 1 1 1 1 1 1 1 1 1 1 1 1 1 1 1
      1 1 1 1 1 1 1 1 1 1 1 1 1 1 1 1 1 1 1 1 1 1 1 1 1 1 1 1 1 1 1 1 1 1 1 1 1 1 1 1
   7  1 1 1 1 1 1 1 1 1 1 1 1 1 1 1 1 1 1 1 1 1 1 1 1 1 1 1 1 1 1 1 1 1 1 1 1 1 1 1 1 1 1 1 1 1 1 1 1 1 1 1 1 1 1 1 1 1 1 1 1
      1 1 1 1 1 1 1 1 1 1 1 1 1 1 1 1 1 1 1 1 1 1 1 1 1 1 1 1 1 1 1 1 1 1 1 1 1 1 1 1

 AQUIFER HEAD WILL BE SET TO  -6999.0     AT ALL NO-FLOW NODES (IBOUND=0).

             INITIAL HEAD =   104.000     FOR LAYER   1
 # OC input file for hypothetical test simulation
 # Test of SFR2 Package

 OUTPUT CONTROL IS SPECIFIED ONLY AT TIME STEPS FOR WHICH OUTPUT IS DESIRED
 COMPACT CELL-BY-CELL BUDGET FILES WILL BE WRITTEN
 HEAD PRINT FORMAT CODE IS  14    DRAWDOWN PRINT FORMAT CODE IS   0
 HEADS WILL BE SAVED ON UNIT  161    DRAWDOWNS WILL BE SAVED ON UNIT    0

 LPF -- LAYER-PROPERTY FLOW PACKAGE, VERSION 7, 5/2/2005
         INPUT READ FROM UNIT   42
 # LPF Package input file for hypothetical test simulation
 # Test of SFR2 Package
 CELL-BY-CELL FLOWS WILL BE SAVED ON UNIT  162
 HEAD AT CELLS THAT CONVERT TO DRY=  -999.00    
 No named parameters

   LAYER FLAGS:
 LAYER       LAYTYP        LAYAVG         CHANI        LAYVKA        LAYWET
 ---------------------------------------------------------------------------
    1             1             0     1.000E+00             0             0

   INTERPRETATION OF LAYER FLAGS:
                        INTERBLOCK     HORIZONTAL    DATA IN
         LAYER TYPE   TRANSMISSIVITY   ANISOTROPY   ARRAY VKA   WETTABILITY
 LAYER      (LAYTYP)      (LAYAVG)       (CHANI)      (LAYVKA)      (LAYWET)
 ---------------------------------------------------------------------------
    1   CONVERTIBLE      HARMONIC     1.000E+00    VERTICAL K  NON-WETTABLE

 WETTING CAPABILITY IS NOT ACTIVE IN ANY LAYER

    HYD. COND. ALONG ROWS =  8.000000E-04 FOR LAYER   1

      VERTICAL HYD. COND. =  6.000000E-06 FOR LAYER   1

         SPECIFIC STORAGE =   0.00000     FOR LAYER   1

           SPECIFIC YIELD =  0.200000     FOR LAYER   1

 GHB -- GENERAL-HEAD BOUNDARY PACKAGE, VERSION 7, 5/2/2005
         INPUT READ FROM UNIT   15
 # GHB Package input file for hypothetical test simulation
 # Test of SFR2 Package
 No named parameters
 MAXIMUM OF      7 ACTIVE GHB CELLS AT ONE TIME
 CELL-BY-CELL FLOWS WILL BE SAVED ON UNIT  163


     0 GHB parameters

 SFR7 -- STREAMFLOW ROUTING PACKAGE, VERSION 1.0.7, 2013-01-15
         INPUT READ FROM UNIT  45
 # SFR2 Package input file for hypothetical test simulation
 # Test of SFR2 Package; revised October 1, 2011
 # Example for using keyword options
 # Stress period inflow rates are now specified in testsfr2_tab.tab TRANSROUTE
 No named parameters

 No named parameters
          1 Specifed inflow files will be read with a maximum of         50 row entries per file


 NUMBER OF STREAM REACHES IS  100

 NUMBER OF STREAM SEGMENTS IS    1

 NUMBER OF STREAM PARAMETERS IS    0

 NUMBER OF STREAM SEGMENTS DEFINED USING PARAMETERS IS              0

 MAXIMUM ERROR FOR STREAM LEAKAGE RATES IS  1.00E-05

 CONSTANT FOR MANNINGS EQUATION IS  1.0000E+00





 OPTION FOR UNSATURATED FLOW BENEATH STREAMBEDS IS ACTIVE 




   STREAM NETWORK DESCRIPTION: 

   LAYER    ROW    COL   SEGMENT   REACH     LENGTH
                          NUMBER   NUMBER    IN CELL        
   --------------------------------------------------
      1      4      1       1        1    2.0000E+02
      1      4      2       1        2    2.0000E+02
      1      4      3       1        3    2.0000E+02
      1      4      4       1        4    2.0000E+02
      1      4      5       1        5    2.0000E+02
      1      4      6       1        6    2.0000E+02
      1      4      7       1        7    2.0000E+02
      1      4      8       1        8    2.0000E+02
      1      4      9       1        9    2.0000E+02
      1      4     10       1       10    2.0000E+02
      1      4     11       1       11    2.0000E+02
      1      4     12       1       12    2.0000E+02
      1      4     13       1       13    2.0000E+02
      1      4     14       1       14    2.0000E+02
      1      4     15       1       15    2.0000E+02
      1      4     16       1       16    2.0000E+02
      1      4     17       1       17    2.0000E+02
      1      4     18       1       18    2.0000E+02
      1      4     19       1       19    2.0000E+02
      1      4     20       1       20    2.0000E+02
      1      4     21       1       21    2.0000E+02
      1      4     22       1       22    2.0000E+02
      1      4     23       1       23    2.0000E+02
      1      4     24       1       24    2.0000E+02
      1      4     25       1       25    2.0000E+02
      1      4     26       1       26    2.0000E+02
      1      4     27       1       27    2.0000E+02
      1      4     28       1       28    2.0000E+02
      1      4     29       1       29    2.0000E+02
      1      4     30       1       30    2.0000E+02
      1      4     31       1       31    2.0000E+02
      1      4     32       1       32    2.0000E+02
      1      4     33       1       33    2.0000E+02
      1      4     34       1       34    2.0000E+02
      1      4     35       1       35    2.0000E+02
      1      4     36       1       36    2.0000E+02
      1      4     37       1       37    2.0000E+02
      1      4     38       1       38    2.0000E+02
      1      4     39       1       39    2.0000E+02
      1      4     40       1       40    2.0000E+02
      1      4     41       1       41    2.0000E+02
      1      4     42       1       42    2.0000E+02
      1      4     43       1       43    2.0000E+02
      1      4     44       1       44    2.0000E+02
      1      4     45       1       45    2.0000E+02
      1      4     46       1       46    2.0000E+02
      1      4     47       1       47    2.0000E+02
      1      4     48       1       48    2.0000E+02
      1      4     49       1       49    2.0000E+02
      1      4     50       1       50    2.0000E+02
      1      4     51       1       51    2.0000E+02
      1      4     52       1       52    2.0000E+02
      1      4     53       1       53    2.0000E+02
      1      4     54       1       54    2.0000E+02
      1      4     55       1       55    2.0000E+02
      1      4     56       1       56    2.0000E+02
      1      4     57       1       57    2.0000E+02
      1      4     58       1       58    2.0000E+02
      1      4     59       1       59    2.0000E+02
      1      4     60       1       60    2.0000E+02
      1      4     61       1       61    2.0000E+02
      1      4     62       1       62    2.0000E+02
      1      4     63       1       63    2.0000E+02
      1      4     64       1       64    2.0000E+02
      1      4     65       1       65    2.0000E+02
      1      4     66       1       66    2.0000E+02
      1      4     67       1       67    2.0000E+02
      1      4     68       1       68    2.0000E+02
      1      4     69       1       69    2.0000E+02
      1      4     70       1       70    2.0000E+02
      1      4     71       1       71    2.0000E+02
      1      4     72       1       72    2.0000E+02
      1      4     73       1       73    2.0000E+02
      1      4     74       1       74    2.0000E+02
      1      4     75       1       75    2.0000E+02
      1      4     76       1       76    2.0000E+02
      1      4     77       1       77    2.0000E+02
      1      4     78       1       78    2.0000E+02
      1      4     79       1       79    2.0000E+02
      1      4     80       1       80    2.0000E+02
      1      4     81       1       81    2.0000E+02
      1      4     82       1       82    2.0000E+02
      1      4     83       1       83    2.0000E+02
      1      4     84       1       84    2.0000E+02
      1      4     85       1       85    2.0000E+02
      1      4     86       1       86    2.0000E+02
      1      4     87       1       87    2.0000E+02
      1      4     88       1       88    2.0000E+02
      1      4     89       1       89    2.0000E+02
      1      4     90       1       90    2.0000E+02
      1      4     91       1       91    2.0000E+02
      1      4     92       1       92    2.0000E+02
      1      4     93       1       93    2.0000E+02
      1      4     94       1       94    2.0000E+02
      1      4     95       1       95    2.0000E+02
      1      4     96       1       96    2.0000E+02
      1      4     97       1       97    2.0000E+02
      1      4     98       1       98    2.0000E+02
      1      4     99       1       99    2.0000E+02
      1      4    100       1      100    2.0000E+02






   8 GAGING STATIONS WERE SPECIFIED.
     (Lakes are identified by a negative value of the Lake Number)
     RECORDS WILL BE WRITTEN TO SEPARATE OUTPUT FILES REPRESENTED BY FOLLOWING UNIT NUMBERS:

 Stream Gages:
  GAGE #   SEGMENT   REACH   UNIT   OUTTYPE
       1       1      20      83       6
       2       1      20      84       7
       3       1      40      85       6
       4       1      40      86       7
       5       1      60      87       6
       6       1      60      88       7
       7       1      80      89       6
       8       1      80      90       7





 PCG -- CONJUGATE-GRADIENT SOLUTION PACKAGE, VERSION 7, 5/2/2005
 # PCG Package input file for hypothetical test simulation
 # Test of SFR2 Package
 MAXIMUM OF    300 CALLS OF SOLUTION ROUTINE
 MAXIMUM OF     20 INTERNAL ITERATIONS PER CALL TO SOLUTION ROUTINE
 MATRIX PRECONDITIONING TYPE :    1



                                    SOLUTION BY THE CONJUGATE-GRADIENT METHOD
                                   -------------------------------------------
                    MAXIMUM NUMBER OF CALLS TO PCG ROUTINE =      300
                        MAXIMUM ITERATIONS PER CALL TO PCG =       20
                               MATRIX PRECONDITIONING TYPE =        1
        RELAXATION FACTOR (ONLY USED WITH PRECOND. TYPE 1) =    0.90000E+00
 PARAMETER OF POLYNOMIAL PRECOND. = 2 (2) OR IS CALCULATED :        2
                         HEAD CHANGE CRITERION FOR CLOSURE =    0.10000E-05
                     RESIDUAL CHANGE CRITERION FOR CLOSURE =    0.10000E-04
            PCG HEAD AND RESIDUAL CHANGE PRINTOUT INTERVAL =      999
     PRINTING FROM SOLVER IS LIMITED(1) OR SUPPRESSED (>1) =        3
                            STEADY-STATE DAMPING PARAMETER =    0.96000E+00
                               TRANSIENT DAMPING PARAMETER =    0.96000E+00
1
                            STRESS PERIOD NO.    1, LENGTH =   2592000.    
                            -----------------------------------------------

                              NUMBER OF TIME STEPS =    30

                               MULTIPLIER FOR DELT =     1.100

                            INITIAL TIME STEP SIZE =   15757.41    

 BOUND. NO. LAYER   ROW   COL     STAGE      CONDUCTANCE         
 ----------------------------------------------------------------
      1      1      1    100       75.00           4.100    
      2      1      2    100       75.00           4.100    
      3      1      3    100       75.00           4.100    
      4      1      4    100       75.00           4.100    
      5      1      5    100       75.00           4.100    
      6      1      6    100       75.00           4.100    
      7      1      7    100       75.00           4.100    

      7 GHB CELLS



 CLASSIFICATION & COUNT OF STREAM SEGMENTS BASED ON SOURCE OF INFLOW:

                HEADWATER     DIVERSION     RECEIVES TRIBUTARY FLOW
                ---------     ---------     -----------------------
                     1              0               0



                    INPUT DATA FOR EACH STREAM SEGMENT
 ---------------------------------------------------------------------------------------------

 SEGMENT    SEG.     INFLOW   OVERLAND   STREAM    STREAM   ICALC  OUTFLOW  DIVERSION PRIORITY
    NO.    LENGTH     RATE     RUNOFF      ET       PPT.    METH.  TO SEG.  FROM SEG.    NO.

      1  2.000E+04 3.000E-01 0.000E+00 0.000E+00 0.000E+00    2        0        0        0


         STREAMBED PROPERTIES AND STREAM DIMENSIONS

 SEGMENT     BED HYD. COND.      BED THICKNESS     ELEV.-TOP OF BED     WIDTH OF STREAM     DEPTH OF STREAM    STREAM ROUGHNESS    SAT. WATER CONT.    INT. WATER CONT.    BROOKS/COREY EPS.     UNSAT. HYD. COND.
    No.     UPPER     LOWER     UPPER     LOWER     UPPER     LOWER     UPPER     LOWER     UPPER     LOWER   CHANNEL      BANK     UPPER     LOWER     UPPER     LOWER     UPPER     LOWER     UPPER

     1  3.500E-07 3.500E-07 5.000E-01 5.000E-01 1.400E+02 1.100E+02                                         3.000E-02 4.000E-02 3.000E-01 3.000E-01 1.000E-01 1.000E-01 3.500E+00 3.500E+00 6.000E-06 6.000E-06

  EIGHT POINT CROSS-SECTION DATA FOR SEGMENTS WITH ICALC = 2
    X VALUES X VALUES START FROM LEFT SIDE LOOKING DOWNSTREAM

     SEGMENT NO.        X1        X2        X3        X4        X5        X6        X7        X8
            1      0.000E+00 2.000E+00 4.000E+00 6.000E+00 8.000E+00 1.000E+01 1.200E+01 1.400E+01

    Z VALUES ARE RELATIVE TO STREAMBED ELEVATION

     SEGMENT NO.          Z1        Z2        Z3        Z4        Z5        Z6        Z7        Z8
            1      6.000E+00 4.500E+00 3.500E+00 0.000E+00 3.000E-01 3.500E+00 4.500E+00 6.000E+00



TABULAR INFLOWS WERE READ FOR SEGMENT      1
FROM FILE UNIT NUMBER     55

          TIMES                    INFLOWS
             0.0000000000         0.3000000000
       2592000.0000000000         2.5330000000
       5184000.0000000000         3.8400000000
       7776000.0000000000        17.8500000000
      10368000.0000000000        20.2600000000
      12960000.0000000000        35.6100000000
      15552000.0000000000        44.0700000000
      18144000.0000000000        33.9100000000
      20736000.0000000000        16.2800000000
      23328000.0000000000        11.3400000000
      25920000.0000000000         3.3840000000
      28512000.0000000000         2.2080000000
      31104000.0000000000         1.2680000000
      33696000.0000000000         3.3500000000
      36288000.0000000000         6.1800000000
      38880000.0000000000        22.4100000000
      41472000.0000000000        17.4700000000
      44064000.0000000000        40.4700000000
      46656000.0000000000        65.5600000000
      49248000.0000000000        35.5600000000
      51840000.0000000000        12.6300000000
      54432000.0000000000         5.8160000000
      57024000.0000000000         4.2960000000
      59616000.0000000000         1.1630000000
      62208000.0000000000         0.3290000000
      64800000.0000000000         0.5120000000
      67392000.0000000000         0.7500000000
      69984000.0000000000         1.7300000000
      72576000.0000000000         5.6800000000
      75168000.0000000000         7.7100000000
      77760000.0000000000         5.4600000000
      80352000.0000000000         6.2700000000
      82944000.0000000000         2.0700000000
      85536000.0000000000         0.3500000000
      88128000.0000000000         0.0530000000
      90720000.0000000000         0.0160000000
      93312000.0000000000         0.0620000000
      95904000.0000000000         3.7300000000
      98496000.0000000000         3.0000000000
     101088000.0000000000         2.4600000000
     103680000.0000000000        19.7000000000
     106272000.0000000000         9.1100000000
     108864000.0000000000         9.9800000000
     111456000.0000000000         6.5100000000
     114048000.0000000000         3.4300000000
     116640000.0000000000         0.5000000000
     119232000.0000000000         2.1000000000
     121824000.0000000000         4.2000000000
     124416000.0000000000         0.0000000000
     127008000.0000000000         0.9000000000

 SOLVING FOR HEAD 

 NO OUTPUT CONTROL FOR STRESS PERIOD    1   TIME STEP    1

 SOLVING FOR HEAD 

 NO OUTPUT CONTROL FOR STRESS PERIOD    1   TIME STEP    2

 SOLVING FOR HEAD 

 NO OUTPUT CONTROL FOR STRESS PERIOD    1   TIME STEP    3

 SOLVING FOR HEAD 

 NO OUTPUT CONTROL FOR STRESS PERIOD    1   TIME STEP    4

 SOLVING FOR HEAD 

 NO OUTPUT CONTROL FOR STRESS PERIOD    1   TIME STEP    5

 SOLVING FOR HEAD 

 NO OUTPUT CONTROL FOR STRESS PERIOD    1   TIME STEP    6

 SOLVING FOR HEAD 

 NO OUTPUT CONTROL FOR STRESS PERIOD    1   TIME STEP    7

 SOLVING FOR HEAD 

 NO OUTPUT CONTROL FOR STRESS PERIOD    1   TIME STEP    8

 SOLVING FOR HEAD 

 NO OUTPUT CONTROL FOR STRESS PERIOD    1   TIME STEP    9

 SOLVING FOR HEAD 

 OUTPUT CONTROL FOR STRESS PERIOD    1   TIME STEP   10
    PRINT HEAD FOR ALL LAYERS
    PRINT BUDGET
    SAVE BUDGET
    SAVE HEAD FOR ALL LAYERS
 UBDSV1 SAVING "         STORAGE" ON UNIT 162 AT TIME STEP 10, STRESS PERIOD   1
 UBDSV2 SAVING "   CONSTANT HEAD" ON UNIT 162 AT TIME STEP 10, STRESS PERIOD   1
 UBDSV1 SAVING "FLOW RIGHT FACE " ON UNIT 162 AT TIME STEP 10, STRESS PERIOD   1
 UBDSV1 SAVING "FLOW FRONT FACE " ON UNIT 162 AT TIME STEP 10, STRESS PERIOD   1
 UBDSV4 SAVING " HEAD DEP BOUNDS" ON UNIT 163 AT TIME STEP 10, STRESS PERIOD   1



 STREAM LISTING     PERIOD      1   STEP       10

 LAYER ROW COL. STREAM  RCH.   FLOW INTO    STREAM     FLOW OUT OF   OVRLND.    DIRECT     STREAM      STREAM      STREAM     STREAM  STREAMBED   FLOW TO   CHNG. UNSAT. 
                SEG.NO.  NO.   STRM. RCH.    LOSS       STRM. RCH.   RUNOFF     PRECIP       ET         HEAD        DEPTH      WIDTH  CONDCTNC.   WAT. TAB.

   1    4    1     1     1    3.0000E-01  3.4737E-04   2.9965E-01  0.000E+00  0.000E+00  0.000E+00  1.40279E+02  4.294E-01  2.326E+00  3.737E-04  0.000E+00  3.474E-04
   1    4    2     1     2    2.9965E-01  3.4724E-04   2.9931E-01  0.000E+00  0.000E+00  0.000E+00  1.39979E+02  4.292E-01  2.326E+00  3.737E-04  0.000E+00  3.472E-04
   1    4    3     1     3    2.9931E-01  3.4710E-04   2.9896E-01  0.000E+00  0.000E+00  0.000E+00  1.39679E+02  4.290E-01  2.326E+00  3.736E-04  0.000E+00  3.471E-04
   1    4    4     1     4    2.9896E-01  3.4696E-04   2.9861E-01  0.000E+00  0.000E+00  0.000E+00  1.39379E+02  4.288E-01  2.326E+00  3.735E-04  0.000E+00  3.470E-04
   1    4    5     1     5    2.9861E-01  3.4682E-04   2.9826E-01  0.000E+00  0.000E+00  0.000E+00  1.39079E+02  4.286E-01  2.325E+00  3.735E-04  0.000E+00  3.468E-04
   1    4    6     1     6    2.9826E-01  3.4669E-04   2.9792E-01  0.000E+00  0.000E+00  0.000E+00  1.38778E+02  4.284E-01  2.325E+00  3.734E-04  0.000E+00  3.467E-04
   1    4    7     1     7    2.9792E-01  3.4655E-04   2.9757E-01  0.000E+00  0.000E+00  0.000E+00  1.38478E+02  4.282E-01  2.325E+00  3.733E-04  0.000E+00  3.466E-04
   1    4    8     1     8    2.9757E-01  3.4641E-04   2.9722E-01  0.000E+00  0.000E+00  0.000E+00  1.38178E+02  4.280E-01  2.325E+00  3.733E-04  0.000E+00  3.464E-04
   1    4    9     1     9    2.9722E-01  3.4628E-04   2.9688E-01  0.000E+00  0.000E+00  0.000E+00  1.37878E+02  4.278E-01  2.324E+00  3.732E-04  0.000E+00  3.463E-04
   1    4   10     1    10    2.9688E-01  3.4614E-04   2.9653E-01  0.000E+00  0.000E+00  0.000E+00  1.37578E+02  4.276E-01  2.324E+00  3.732E-04  0.000E+00  3.461E-04
   1    4   11     1    11    2.9653E-01  3.4600E-04   2.9619E-01  0.000E+00  0.000E+00  0.000E+00  1.37277E+02  4.274E-01  2.324E+00  3.731E-04  0.000E+00  3.460E-04
   1    4   12     1    12    2.9619E-01  3.4586E-04   2.9584E-01  0.000E+00  0.000E+00  0.000E+00  1.36977E+02  4.272E-01  2.324E+00  3.730E-04  0.000E+00  3.459E-04
   1    4   13     1    13    2.9584E-01  3.4573E-04   2.9549E-01  0.000E+00  0.000E+00  0.000E+00  1.36677E+02  4.270E-01  2.323E+00  3.730E-04  0.000E+00  3.457E-04
   1    4   14     1    14    2.9549E-01  3.4559E-04   2.9515E-01  0.000E+00  0.000E+00  0.000E+00  1.36377E+02  4.268E-01  2.323E+00  3.729E-04  0.000E+00  3.456E-04
   1    4   15     1    15    2.9515E-01  3.4545E-04   2.9480E-01  0.000E+00  0.000E+00  0.000E+00  1.36077E+02  4.266E-01  2.323E+00  3.728E-04  0.000E+00  3.455E-04
   1    4   16     1    16    2.9480E-01  3.4531E-04   2.9446E-01  0.000E+00  0.000E+00  0.000E+00  1.35776E+02  4.264E-01  2.323E+00  3.728E-04  0.000E+00  3.453E-04
   1    4   17     1    17    2.9446E-01  3.4518E-04   2.9411E-01  0.000E+00  0.000E+00  0.000E+00  1.35476E+02  4.262E-01  2.322E+00  3.727E-04  0.000E+00  3.452E-04
   1    4   18     1    18    2.9411E-01  3.4504E-04   2.9377E-01  0.000E+00  0.000E+00  0.000E+00  1.35176E+02  4.260E-01  2.322E+00  3.726E-04  0.000E+00  3.450E-04
   1    4   19     1    19    2.9377E-01  3.4490E-04   2.9342E-01  0.000E+00  0.000E+00  0.000E+00  1.34876E+02  4.258E-01  2.322E+00  3.726E-04  0.000E+00  3.449E-04
   1    4   20     1    20    2.9342E-01  3.4477E-04   2.9308E-01  0.000E+00  0.000E+00  0.000E+00  1.34576E+02  4.256E-01  2.322E+00  3.725E-04  0.000E+00  3.448E-04
   1    4   21     1    21    2.9308E-01  3.4463E-04   2.9273E-01  0.000E+00  0.000E+00  0.000E+00  1.34275E+02  4.254E-01  2.321E+00  3.724E-04  0.000E+00  3.446E-04
   1    4   22     1    22    2.9273E-01  3.4449E-04   2.9239E-01  0.000E+00  0.000E+00  0.000E+00  1.33975E+02  4.252E-01  2.321E+00  3.724E-04  0.000E+00  3.445E-04
   1    4   23     1    23    2.9239E-01  3.4435E-04   2.9205E-01  0.000E+00  0.000E+00  0.000E+00  1.33675E+02  4.250E-01  2.321E+00  3.723E-04  0.000E+00  3.444E-04
   1    4   24     1    24    2.9205E-01  3.4422E-04   2.9170E-01  0.000E+00  0.000E+00  0.000E+00  1.33375E+02  4.248E-01  2.321E+00  3.722E-04  0.000E+00  3.442E-04
   1    4   25     1    25    2.9170E-01  3.4408E-04   2.9136E-01  0.000E+00  0.000E+00  0.000E+00  1.33075E+02  4.246E-01  2.320E+00  3.722E-04  0.000E+00  3.441E-04
   1    4   26     1    26    2.9136E-01  3.4394E-04   2.9101E-01  0.000E+00  0.000E+00  0.000E+00  1.32774E+02  4.244E-01  2.320E+00  3.721E-04  0.000E+00  3.439E-04
   1    4   27     1    27    2.9101E-01  3.4381E-04   2.9067E-01  0.000E+00  0.000E+00  0.000E+00  1.32474E+02  4.242E-01  2.320E+00  3.720E-04  0.000E+00  3.438E-04
   1    4   28     1    28    2.9067E-01  3.4367E-04   2.9033E-01  0.000E+00  0.000E+00  0.000E+00  1.32174E+02  4.240E-01  2.320E+00  3.720E-04  0.000E+00  3.437E-04
   1    4   29     1    29    2.9033E-01  3.4353E-04   2.8998E-01  0.000E+00  0.000E+00  0.000E+00  1.31874E+02  4.237E-01  2.319E+00  3.719E-04  0.000E+00  3.435E-04
   1    4   30     1    30    2.8998E-01  3.4339E-04   2.8964E-01  0.000E+00  0.000E+00  0.000E+00  1.31574E+02  4.235E-01  2.319E+00  3.718E-04  0.000E+00  3.434E-04
   1    4   31     1    31    2.8964E-01  3.4326E-04   2.8930E-01  0.000E+00  0.000E+00  0.000E+00  1.31273E+02  4.233E-01  2.319E+00  3.718E-04  0.000E+00  3.433E-04
   1    4   32     1    32    2.8930E-01  3.4312E-04   2.8895E-01  0.000E+00  0.000E+00  0.000E+00  1.30973E+02  4.231E-01  2.319E+00  3.717E-04  0.000E+00  3.431E-04
   1    4   33     1    33    2.8895E-01  3.4298E-04   2.8861E-01  0.000E+00  0.000E+00  0.000E+00  1.30673E+02  4.229E-01  2.319E+00  3.716E-04  0.000E+00  3.430E-04
   1    4   34     1    34    2.8861E-01  3.4285E-04   2.8827E-01  0.000E+00  0.000E+00  0.000E+00  1.30373E+02  4.227E-01  2.318E+00  3.716E-04  0.000E+00  3.428E-04
   1    4   35     1    35    2.8827E-01  3.4271E-04   2.8792E-01  0.000E+00  0.000E+00  0.000E+00  1.30073E+02  4.225E-01  2.318E+00  3.715E-04  0.000E+00  3.427E-04
   1    4   36     1    36    2.8792E-01  3.4257E-04   2.8758E-01  0.000E+00  0.000E+00  0.000E+00  1.29772E+02  4.223E-01  2.318E+00  3.714E-04  0.000E+00  3.426E-04
   1    4   37     1    37    2.8758E-01  3.4244E-04   2.8724E-01  0.000E+00  0.000E+00  0.000E+00  1.29472E+02  4.221E-01  2.318E+00  3.714E-04  0.000E+00  3.424E-04
   1    4   38     1    38    2.8724E-01  3.4230E-04   2.8690E-01  0.000E+00  0.000E+00  0.000E+00  1.29172E+02  4.219E-01  2.317E+00  3.713E-04  0.000E+00  3.423E-04
   1    4   39     1    39    2.8690E-01  3.4216E-04   2.8655E-01  0.000E+00  0.000E+00  0.000E+00  1.28872E+02  4.217E-01  2.317E+00  3.712E-04  0.000E+00  3.422E-04
   1    4   40     1    40    2.8655E-01  3.4203E-04   2.8621E-01  0.000E+00  0.000E+00  0.000E+00  1.28572E+02  4.215E-01  2.317E+00  3.712E-04  0.000E+00  3.420E-04
   1    4   41     1    41    2.8621E-01  3.4189E-04   2.8587E-01  0.000E+00  0.000E+00  0.000E+00  1.28271E+02  4.213E-01  2.317E+00  3.711E-04  0.000E+00  3.419E-04
   1    4   42     1    42    2.8587E-01  3.4175E-04   2.8553E-01  0.000E+00  0.000E+00  0.000E+00  1.27971E+02  4.211E-01  2.316E+00  3.710E-04  0.000E+00  3.418E-04
   1    4   43     1    43    2.8553E-01  3.4162E-04   2.8519E-01  0.000E+00  0.000E+00  0.000E+00  1.27671E+02  4.209E-01  2.316E+00  3.710E-04  0.000E+00  3.416E-04
   1    4   44     1    44    2.8519E-01  3.4148E-04   2.8485E-01  0.000E+00  0.000E+00  0.000E+00  1.27371E+02  4.207E-01  2.316E+00  3.709E-04  0.000E+00  3.415E-04
   1    4   45     1    45    2.8485E-01  3.4134E-04   2.8450E-01  0.000E+00  0.000E+00  0.000E+00  1.27070E+02  4.205E-01  2.316E+00  3.708E-04  0.000E+00  3.413E-04
   1    4   46     1    46    2.8450E-01  3.4121E-04   2.8416E-01  0.000E+00  0.000E+00  0.000E+00  1.26770E+02  4.203E-01  2.315E+00  3.708E-04  0.000E+00  3.412E-04
   1    4   47     1    47    2.8416E-01  3.4107E-04   2.8382E-01  0.000E+00  0.000E+00  0.000E+00  1.26470E+02  4.201E-01  2.315E+00  3.707E-04  0.000E+00  3.411E-04
   1    4   48     1    48    2.8382E-01  3.4093E-04   2.8348E-01  0.000E+00  0.000E+00  0.000E+00  1.26170E+02  4.199E-01  2.315E+00  3.706E-04  0.000E+00  3.409E-04
   1    4   49     1    49    2.8348E-01  3.4080E-04   2.8314E-01  0.000E+00  0.000E+00  0.000E+00  1.25870E+02  4.197E-01  2.315E+00  3.706E-04  0.000E+00  3.408E-04
   1    4   50     1    50    2.8314E-01  3.4066E-04   2.8280E-01  0.000E+00  0.000E+00  0.000E+00  1.25569E+02  4.195E-01  2.314E+00  3.705E-04  0.000E+00  3.407E-04
   1    4   51     1    51    2.8280E-01  3.4052E-04   2.8246E-01  0.000E+00  0.000E+00  0.000E+00  1.25269E+02  4.193E-01  2.314E+00  3.704E-04  0.000E+00  3.405E-04
   1    4   52     1    52    2.8246E-01  3.4039E-04   2.8212E-01  0.000E+00  0.000E+00  0.000E+00  1.24969E+02  4.191E-01  2.314E+00  3.704E-04  0.000E+00  3.404E-04
   1    4   53     1    53    2.8212E-01  3.4025E-04   2.8178E-01  0.000E+00  0.000E+00  0.000E+00  1.24669E+02  4.189E-01  2.314E+00  3.703E-04  0.000E+00  3.402E-04
   1    4   54     1    54    2.8178E-01  3.4011E-04   2.8144E-01  0.000E+00  0.000E+00  0.000E+00  1.24369E+02  4.187E-01  2.313E+00  3.702E-04  0.000E+00  3.401E-04
   1    4   55     1    55    2.8144E-01  3.3998E-04   2.8110E-01  0.000E+00  0.000E+00  0.000E+00  1.24068E+02  4.185E-01  2.313E+00  3.702E-04  0.000E+00  3.400E-04
   1    4   56     1    56    2.8110E-01  3.3984E-04   2.8076E-01  0.000E+00  0.000E+00  0.000E+00  1.23768E+02  4.182E-01  2.313E+00  3.701E-04  0.000E+00  3.398E-04
   1    4   57     1    57    2.8076E-01  3.3970E-04   2.8042E-01  0.000E+00  0.000E+00  0.000E+00  1.23468E+02  4.180E-01  2.313E+00  3.700E-04  0.000E+00  3.397E-04
   1    4   58     1    58    2.8042E-01  3.3957E-04   2.8008E-01  0.000E+00  0.000E+00  0.000E+00  1.23168E+02  4.178E-01  2.312E+00  3.700E-04  0.000E+00  3.396E-04
   1    4   59     1    59    2.8008E-01  3.3943E-04   2.7974E-01  0.000E+00  0.000E+00  0.000E+00  1.22868E+02  4.176E-01  2.312E+00  3.699E-04  0.000E+00  3.394E-04
   1    4   60     1    60    2.7974E-01  3.3929E-04   2.7940E-01  0.000E+00  0.000E+00  0.000E+00  1.22567E+02  4.174E-01  2.312E+00  3.698E-04  0.000E+00  3.393E-04
   1    4   61     1    61    2.7940E-01  3.3916E-04   2.7906E-01  0.000E+00  0.000E+00  0.000E+00  1.22267E+02  4.172E-01  2.312E+00  3.698E-04  0.000E+00  3.392E-04
   1    4   62     1    62    2.7906E-01  3.3902E-04   2.7872E-01  0.000E+00  0.000E+00  0.000E+00  1.21967E+02  4.170E-01  2.311E+00  3.697E-04  0.000E+00  3.390E-04
   1    4   63     1    63    2.7872E-01  3.3889E-04   2.7838E-01  0.000E+00  0.000E+00  0.000E+00  1.21667E+02  4.168E-01  2.311E+00  3.696E-04  0.000E+00  3.389E-04
   1    4   64     1    64    2.7838E-01  3.3875E-04   2.7804E-01  0.000E+00  0.000E+00  0.000E+00  1.21367E+02  4.166E-01  2.311E+00  3.696E-04  0.000E+00  3.387E-04
   1    4   65     1    65    2.7804E-01  3.3861E-04   2.7771E-01  0.000E+00  0.000E+00  0.000E+00  1.21066E+02  4.164E-01  2.311E+00  3.695E-04  0.000E+00  3.386E-04
   1    4   66     1    66    2.7771E-01  3.3848E-04   2.7737E-01  0.000E+00  0.000E+00  0.000E+00  1.20766E+02  4.162E-01  2.310E+00  3.694E-04  0.000E+00  3.385E-04
   1    4   67     1    67    2.7737E-01  3.3834E-04   2.7703E-01  0.000E+00  0.000E+00  0.000E+00  1.20466E+02  4.160E-01  2.310E+00  3.694E-04  0.000E+00  3.383E-04
   1    4   68     1    68    2.7703E-01  3.3820E-04   2.7669E-01  0.000E+00  0.000E+00  0.000E+00  1.20166E+02  4.158E-01  2.310E+00  3.693E-04  0.000E+00  3.382E-04
   1    4   69     1    69    2.7669E-01  3.3807E-04   2.7635E-01  0.000E+00  0.000E+00  0.000E+00  1.19866E+02  4.156E-01  2.310E+00  3.692E-04  0.000E+00  3.381E-04
   1    4   70     1    70    2.7635E-01  3.3793E-04   2.7601E-01  0.000E+00  0.000E+00  0.000E+00  1.19565E+02  4.154E-01  2.309E+00  3.692E-04  0.000E+00  3.379E-04
   1    4   71     1    71    2.7601E-01  3.3779E-04   2.7568E-01  0.000E+00  0.000E+00  0.000E+00  1.19265E+02  4.152E-01  2.309E+00  3.691E-04  0.000E+00  3.378E-04
   1    4   72     1    72    2.7568E-01  3.3766E-04   2.7534E-01  0.000E+00  0.000E+00  0.000E+00  1.18965E+02  4.150E-01  2.309E+00  3.690E-04  0.000E+00  3.377E-04
   1    4   73     1    73    2.7534E-01  3.3752E-04   2.7500E-01  0.000E+00  0.000E+00  0.000E+00  1.18665E+02  4.148E-01  2.309E+00  3.690E-04  0.000E+00  3.375E-04
   1    4   74     1    74    2.7500E-01  3.3739E-04   2.7466E-01  0.000E+00  0.000E+00  0.000E+00  1.18365E+02  4.146E-01  2.309E+00  3.689E-04  0.000E+00  3.374E-04
   1    4   75     1    75    2.7466E-01  3.3725E-04   2.7433E-01  0.000E+00  0.000E+00  0.000E+00  1.18064E+02  4.144E-01  2.308E+00  3.688E-04  0.000E+00  3.373E-04
   1    4   76     1    76    2.7433E-01  3.3711E-04   2.7399E-01  0.000E+00  0.000E+00  0.000E+00  1.17764E+02  4.142E-01  2.308E+00  3.688E-04  0.000E+00  3.371E-04
   1    4   77     1    77    2.7399E-01  3.3698E-04   2.7365E-01  0.000E+00  0.000E+00  0.000E+00  1.17464E+02  4.140E-01  2.308E+00  3.687E-04  0.000E+00  3.370E-04
   1    4   78     1    78    2.7365E-01  3.3684E-04   2.7332E-01  0.000E+00  0.000E+00  0.000E+00  1.17164E+02  4.138E-01  2.308E+00  3.686E-04  0.000E+00  3.368E-04
   1    4   79     1    79    2.7332E-01  3.3671E-04   2.7298E-01  0.000E+00  0.000E+00  0.000E+00  1.16864E+02  4.136E-01  2.307E+00  3.686E-04  0.000E+00  3.367E-04
   1    4   80     1    80    2.7298E-01  3.3657E-04   2.7264E-01  0.000E+00  0.000E+00  0.000E+00  1.16563E+02  4.134E-01  2.307E+00  3.685E-04  0.000E+00  3.366E-04
   1    4   81     1    81    2.7264E-01  3.3643E-04   2.7231E-01  0.000E+00  0.000E+00  0.000E+00  1.16263E+02  4.132E-01  2.307E+00  3.684E-04  0.000E+00  3.364E-04
   1    4   82     1    82    2.7231E-01  3.3630E-04   2.7197E-01  0.000E+00  0.000E+00  0.000E+00  1.15963E+02  4.129E-01  2.307E+00  3.684E-04  0.000E+00  3.363E-04
   1    4   83     1    83    2.7197E-01  3.3616E-04   2.7163E-01  0.000E+00  0.000E+00  0.000E+00  1.15663E+02  4.127E-01  2.306E+00  3.683E-04  0.000E+00  3.362E-04
   1    4   84     1    84    2.7163E-01  3.3603E-04   2.7130E-01  0.000E+00  0.000E+00  0.000E+00  1.15363E+02  4.125E-01  2.306E+00  3.682E-04  0.000E+00  3.360E-04
   1    4   85     1    85    2.7130E-01  3.3589E-04   2.7096E-01  0.000E+00  0.000E+00  0.000E+00  1.15062E+02  4.123E-01  2.306E+00  3.682E-04  0.000E+00  3.359E-04
   1    4   86     1    86    2.7096E-01  3.3575E-04   2.7063E-01  0.000E+00  0.000E+00  0.000E+00  1.14762E+02  4.121E-01  2.306E+00  3.681E-04  0.000E+00  3.358E-04
   1    4   87     1    87    2.7063E-01  3.3562E-04   2.7029E-01  0.000E+00  0.000E+00  0.000E+00  1.14462E+02  4.119E-01  2.305E+00  3.680E-04  0.000E+00  3.356E-04
   1    4   88     1    88    2.7029E-01  3.3548E-04   2.6996E-01  0.000E+00  0.000E+00  0.000E+00  1.14162E+02  4.117E-01  2.305E+00  3.680E-04  0.000E+00  3.355E-04
   1    4   89     1    89    2.6996E-01  3.3535E-04   2.6962E-01  0.000E+00  0.000E+00  0.000E+00  1.13862E+02  4.115E-01  2.305E+00  3.679E-04  0.000E+00  3.353E-04
   1    4   90     1    90    2.6962E-01  3.3521E-04   2.6928E-01  0.000E+00  0.000E+00  0.000E+00  1.13561E+02  4.113E-01  2.305E+00  3.678E-04  0.000E+00  3.352E-04
   1    4   91     1    91    2.6928E-01  3.3507E-04   2.6895E-01  0.000E+00  0.000E+00  0.000E+00  1.13261E+02  4.111E-01  2.304E+00  3.678E-04  0.000E+00  3.351E-04
   1    4   92     1    92    2.6895E-01  3.3494E-04   2.6861E-01  0.000E+00  0.000E+00  0.000E+00  1.12961E+02  4.109E-01  2.304E+00  3.677E-04  0.000E+00  3.349E-04
   1    4   93     1    93    2.6861E-01  3.3480E-04   2.6828E-01  0.000E+00  0.000E+00  0.000E+00  1.12661E+02  4.107E-01  2.304E+00  3.676E-04  0.000E+00  3.348E-04
   1    4   94     1    94    2.6828E-01  3.3467E-04   2.6795E-01  0.000E+00  0.000E+00  0.000E+00  1.12360E+02  4.105E-01  2.304E+00  3.676E-04  0.000E+00  3.347E-04
   1    4   95     1    95    2.6795E-01  3.3453E-04   2.6761E-01  0.000E+00  0.000E+00  0.000E+00  1.12060E+02  4.103E-01  2.303E+00  3.675E-04  0.000E+00  3.345E-04
   1    4   96     1    96    2.6761E-01  3.3440E-04   2.6728E-01  0.000E+00  0.000E+00  0.000E+00  1.11760E+02  4.101E-01  2.303E+00  3.674E-04  0.000E+00  3.344E-04
   1    4   97     1    97    2.6728E-01  3.3426E-04   2.6694E-01  0.000E+00  0.000E+00  0.000E+00  1.11460E+02  4.099E-01  2.303E+00  3.674E-04  0.000E+00  3.343E-04
   1    4   98     1    98    2.6694E-01  3.3412E-04   2.6661E-01  0.000E+00  0.000E+00  0.000E+00  1.11160E+02  4.097E-01  2.303E+00  3.673E-04  0.000E+00  3.341E-04
   1    4   99     1    99    2.6661E-01  3.3399E-04   2.6627E-01  0.000E+00  0.000E+00  0.000E+00  1.10859E+02  4.095E-01  2.302E+00  3.672E-04  0.000E+00  3.340E-04
   1    4  100     1   100    2.6627E-01  3.3385E-04   2.6594E-01  0.000E+00  0.000E+00  0.000E+00  1.10559E+02  4.093E-01  2.302E+00  3.672E-04  0.000E+00  3.339E-04



1
  VOLUMETRIC BUDGET FOR UNSATURATED ZONE BENEATH STREAMS AT END OF TIME STEP  10 STRESS PERIOD   1
  ------------------------------------------------------------------------------------------------

    CUMULATIVE VOLUMES             L**3    RATES FOR THIS TIME STEP         L**3/T
    ------------------                     ------------------------


          STREAM LOSS =         8553.5412            STREAM LOSS =        3.4060E-02
    CHANGE IN STORAGE =         8553.5412      CHANGE IN STORAGE =        3.4060E-02
       RECHARGE TO GW =            0.0000         RECHARGE TO GW =            0.0000

             TOTAL IN =         8553.5412               TOTAL IN =        3.4060E-02

            TOTAL OUT =         8553.5412              TOTAL OUT =        3.4060E-02

             IN - OUT =       -6.7303E-11               IN - OUT =           -0.0000

  PERCENT DISCREPANCY =           -0.00      PERCENT DISCREPANCY =            -0.00



1
              HEAD IN LAYER   1 AT END OF TIME STEP  10 IN STRESS PERIOD    1
  ---------------------------------------------------------------------------

          1      2      3      4      5      6      7      8      9     10
         11     12     13     14     15     16     17     18     19     20
         21     22     23     24     25     26     27     28     29     30
         31     32     33     34     35     36     37     38     39     40
         41     42     43     44     45     46     47     48     49     50
         51     52     53     54     55     56     57     58     59     60
         61     62     63     64     65     66     67     68     69     70
         71     72     73     74     75     76     77     78     79     80
         81     82     83     84     85     86     87     88     89     90
         91     92     93     94     95     96     97     98     99    100
 .........................................................................
   1   104.0  104.0  104.0  104.0  104.0  104.0  104.0  104.0  104.0  104.0
       104.0  104.0  104.0  104.0  104.0  104.0  104.0  104.0  104.0  104.0
       104.0  104.0  104.0  104.0  104.0  104.0  104.0  104.0  104.0  104.0
       104.0  104.0  104.0  104.0  104.0  104.0  104.0  104.0  104.0  104.0
       104.0  104.0  104.0  104.0  104.0  104.0  104.0  104.0  104.0  104.0
       104.0  104.0  104.0  104.0  104.0  104.0  104.0  104.0  104.0  104.0
       104.0  104.0  104.0  104.0  104.0  104.0  104.0  104.0  104.0  104.0
       104.0  104.0  104.0  104.0  104.0  104.0  104.0  104.0  104.0  104.0
       104.0  104.0  103.9  103.8  103.7  103.5  103.3  103.1  102.9  102.6
       102.3  102.0  101.6  101.0  100.4   99.3   96.9   92.6   85.5   75.1
   2   104.0  104.0  104.0  104.0  104.0  104.0  104.0  104.0  104.0  104.0
       104.0  104.0  104.0  104.0  104.0  104.0  104.0  104.0  104.0  104.0
       104.0  104.0  104.0  104.0  104.0  104.0  104.0  104.0  104.0  104.0
       104.0  104.0  104.0  104.0  104.0  104.0  104.0  104.0  104.0  104.0
       104.0  104.0  104.0  104.0  104.0  104.0  104.0  104.0  104.0  104.0
       104.0  104.0  104.0  104.0  104.0  104.0  104.0  104.0  104.0  104.0
       104.0  104.0  104.0  104.0  104.0  104.0  104.0  104.0  104.0  104.0
       104.0  104.0  104.0  104.0  104.0  104.0  104.0  104.0  104.0  104.0
       104.0  104.0  103.9  103.8  103.7  103.5  103.3  103.1  102.9  102.6
       102.3  102.0  101.6  101.0  100.4   99.3   96.9   92.6   85.5   75.1
   3   104.0  104.0  104.0  104.0  104.0  104.0  104.0  104.0  104.0  104.0
       104.0  104.0  104.0  104.0  104.0  104.0  104.0  104.0  104.0  104.0
       104.0  104.0  104.0  104.0  104.0  104.0  104.0  104.0  104.0  104.0
       104.0  104.0  104.0  104.0  104.0  104.0  104.0  104.0  104.0  104.0
       104.0  104.0  104.0  104.0  104.0  104.0  104.0  104.0  104.0  104.0
       104.0  104.0  104.0  104.0  104.0  104.0  104.0  104.0  104.0  104.0
       104.0  104.0  104.0  104.0  104.0  104.0  104.0  104.0  104.0  104.0
       104.0  104.0  104.0  104.0  104.0  104.0  104.0  104.0  104.0  104.0
       104.0  104.0  103.9  103.8  103.7  103.5  103.3  103.1  102.9  102.6
       102.3  102.0  101.6  101.0  100.4   99.3   96.9   92.6   85.5   75.1
   4   104.0  104.0  104.0  104.0  104.0  104.0  104.0  104.0  104.0  104.0
       104.0  104.0  104.0  104.0  104.0  104.0  104.0  104.0  104.0  104.0
       104.0  104.0  104.0  104.0  104.0  104.0  104.0  104.0  104.0  104.0
       104.0  104.0  104.0  104.0  104.0  104.0  104.0  104.0  104.0  104.0
       104.0  104.0  104.0  104.0  104.0  104.0  104.0  104.0  104.0  104.0
       104.0  104.0  104.0  104.0  104.0  104.0  104.0  104.0  104.0  104.0
       104.0  104.0  104.0  104.0  104.0  104.0  104.0  104.0  104.0  104.0
       104.0  104.0  104.0  104.0  104.0  104.0  104.0  104.0  104.0  104.0
       104.0  104.0  103.9  103.8  103.7  103.5  103.3  103.1  102.9  102.6
       102.3  102.0  101.6  101.0  100.4   99.3   96.9   92.6   85.5   75.1
   5   104.0  104.0  104.0  104.0  104.0  104.0  104.0  104.0  104.0  104.0
       104.0  104.0  104.0  104.0  104.0  104.0  104.0  104.0  104.0  104.0
       104.0  104.0  104.0  104.0  104.0  104.0  104.0  104.0  104.0  104.0
       104.0  104.0  104.0  104.0  104.0  104.0  104.0  104.0  104.0  104.0
       104.0  104.0  104.0  104.0  104.0  104.0  104.0  104.0  104.0  104.0
       104.0  104.0  104.0  104.0  104.0  104.0  104.0  104.0  104.0  104.0
       104.0  104.0  104.0  104.0  104.0  104.0  104.0  104.0  104.0  104.0
       104.0  104.0  104.0  104.0  104.0  104.0  104.0  104.0  104.0  104.0
       104.0  104.0  103.9  103.8  103.7  103.5  103.3  103.1  102.9  102.6
       102.3  102.0  101.6  101.0  100.4   99.3   96.9   92.6   85.5   75.1
   6   104.0  104.0  104.0  104.0  104.0  104.0  104.0  104.0  104.0  104.0
       104.0  104.0  104.0  104.0  104.0  104.0  104.0  104.0  104.0  104.0
       104.0  104.0  104.0  104.0  104.0  104.0  104.0  104.0  104.0  104.0
       104.0  104.0  104.0  104.0  104.0  104.0  104.0  104.0  104.0  104.0
       104.0  104.0  104.0  104.0  104.0  104.0  104.0  104.0  104.0  104.0
       104.0  104.0  104.0  104.0  104.0  104.0  104.0  104.0  104.0  104.0
       104.0  104.0  104.0  104.0  104.0  104.0  104.0  104.0  104.0  104.0
       104.0  104.0  104.0  104.0  104.0  104.0  104.0  104.0  104.0  104.0
       104.0  104.0  103.9  103.8  103.7  103.5  103.3  103.1  102.9  102.6
       102.3  102.0  101.6  101.0  100.4   99.3   96.9   92.6   85.5   75.1
   7   104.0  104.0  104.0  104.0  104.0  104.0  104.0  104.0  104.0  104.0
       104.0  104.0  104.0  104.0  104.0  104.0  104.0  104.0  104.0  104.0
       104.0  104.0  104.0  104.0  104.0  104.0  104.0  104.0  104.0  104.0
       104.0  104.0  104.0  104.0  104.0  104.0  104.0  104.0  104.0  104.0
       104.0  104.0  104.0  104.0  104.0  104.0  104.0  104.0  104.0  104.0
       104.0  104.0  104.0  104.0  104.0  104.0  104.0  104.0  104.0  104.0
       104.0  104.0  104.0  104.0  104.0  104.0  104.0  104.0  104.0  104.0
       104.0  104.0  104.0  104.0  104.0  104.0  104.0  104.0  104.0  104.0
       104.0  104.0  103.9  103.8  103.7  103.5  103.3  103.1  102.9  102.6
       102.3  102.0  101.6  101.0  100.4   99.3   96.9   92.6   85.5   75.1

 HEAD WILL BE SAVED ON UNIT  161 AT END OF TIME STEP   10, STRESS PERIOD    1
1
  VOLUMETRIC BUDGET FOR ENTIRE MODEL AT END OF TIME STEP   10, STRESS PERIOD   1
  ------------------------------------------------------------------------------

     CUMULATIVE VOLUMES      L**3       RATES FOR THIS TIME STEP      L**3/T
     ------------------                 ------------------------

           IN:                                      IN:
           ---                                      ---
             STORAGE =     1302251.8904               STORAGE =           2.0057
       CONSTANT HEAD =           0.0000         CONSTANT HEAD =           0.0000
     HEAD DEP BOUNDS =           0.0000       HEAD DEP BOUNDS =           0.0000
      STREAM LEAKAGE =           0.0000        STREAM LEAKAGE =           0.0000

            TOTAL IN =     1302251.8904              TOTAL IN =           2.0057

          OUT:                                     OUT:
          ----                                     ----
             STORAGE =       5.8704E-08               STORAGE =       2.9310E-14
       CONSTANT HEAD =           0.0000         CONSTANT HEAD =           0.0000
     HEAD DEP BOUNDS =     1302251.9327       HEAD DEP BOUNDS =           2.0057
      STREAM LEAKAGE =           0.0000        STREAM LEAKAGE =           0.0000

           TOTAL OUT =     1302251.9327             TOTAL OUT =           2.0057

            IN - OUT =      -4.2301E-02              IN - OUT =      -4.1991E-09

 PERCENT DISCREPANCY =          -0.00     PERCENT DISCREPANCY =          -0.00






         TIME SUMMARY AT END OF TIME STEP   10 IN STRESS PERIOD    1
                    SECONDS     MINUTES      HOURS       DAYS        YEARS
                    -----------------------------------------------------------
   TIME STEP LENGTH  37155.      619.25      10.321     0.43004     1.17738E-03
 STRESS PERIOD TIME 2.51133E+05  4185.5      69.759      2.9066     7.95791E-03
         TOTAL TIME 2.51133E+05  4185.5      69.759      2.9066     7.95791E-03
1

 SOLVING FOR HEAD 

 NO OUTPUT CONTROL FOR STRESS PERIOD    1   TIME STEP   11

 SOLVING FOR HEAD 

 NO OUTPUT CONTROL FOR STRESS PERIOD    1   TIME STEP   12

 SOLVING FOR HEAD 

 NO OUTPUT CONTROL FOR STRESS PERIOD    1   TIME STEP   13

 SOLVING FOR HEAD 

 NO OUTPUT CONTROL FOR STRESS PERIOD    1   TIME STEP   14

 SOLVING FOR HEAD 

 NO OUTPUT CONTROL FOR STRESS PERIOD    1   TIME STEP   15

 SOLVING FOR HEAD 

 NO OUTPUT CONTROL FOR STRESS PERIOD    1   TIME STEP   16

 SOLVING FOR HEAD 

 NO OUTPUT CONTROL FOR STRESS PERIOD    1   TIME STEP   17

 SOLVING FOR HEAD 

 NO OUTPUT CONTROL FOR STRESS PERIOD    1   TIME STEP   18

 SOLVING FOR HEAD 

 NO OUTPUT CONTROL FOR STRESS PERIOD    1   TIME STEP   19

 SOLVING FOR HEAD 

 NO OUTPUT CONTROL FOR STRESS PERIOD    1   TIME STEP   20

 SOLVING FOR HEAD 

 NO OUTPUT CONTROL FOR STRESS PERIOD    1   TIME STEP   21

 SOLVING FOR HEAD 

 NO OUTPUT CONTROL FOR STRESS PERIOD    1   TIME STEP   22

 SOLVING FOR HEAD 

 NO OUTPUT CONTROL FOR STRESS PERIOD    1   TIME STEP   23

 SOLVING FOR HEAD 

 NO OUTPUT CONTROL FOR STRESS PERIOD    1   TIME STEP   24

 SOLVING FOR HEAD 

 NO OUTPUT CONTROL FOR STRESS PERIOD    1   TIME STEP   25

 SOLVING FOR HEAD 

 NO OUTPUT CONTROL FOR STRESS PERIOD    1   TIME STEP   26

 SOLVING FOR HEAD 

 NO OUTPUT CONTROL FOR STRESS PERIOD    1   TIME STEP   27

 SOLVING FOR HEAD 

 NO OUTPUT CONTROL FOR STRESS PERIOD    1   TIME STEP   28

 SOLVING FOR HEAD 

 NO OUTPUT CONTROL FOR STRESS PERIOD    1   TIME STEP   29

 SOLVING FOR HEAD 

 OUTPUT CONTROL FOR STRESS PERIOD    1   TIME STEP   30
    PRINT HEAD FOR ALL LAYERS
    PRINT BUDGET
    SAVE BUDGET
    SAVE HEAD FOR ALL LAYERS
 UBDSV1 SAVING "         STORAGE" ON UNIT 162 AT TIME STEP 30, STRESS PERIOD   1
 UBDSV2 SAVING "   CONSTANT HEAD" ON UNIT 162 AT TIME STEP 30, STRESS PERIOD   1
 UBDSV1 SAVING "FLOW RIGHT FACE " ON UNIT 162 AT TIME STEP 30, STRESS PERIOD   1
 UBDSV1 SAVING "FLOW FRONT FACE " ON UNIT 162 AT TIME STEP 30, STRESS PERIOD   1
 UBDSV4 SAVING " HEAD DEP BOUNDS" ON UNIT 163 AT TIME STEP 30, STRESS PERIOD   1



 STREAM LISTING     PERIOD      1   STEP       30

 LAYER ROW COL. STREAM  RCH.   FLOW INTO    STREAM     FLOW OUT OF   OVRLND.    DIRECT     STREAM      STREAM      STREAM     STREAM  STREAMBED   FLOW TO   CHNG. UNSAT. 
                SEG.NO.  NO.   STRM. RCH.    LOSS       STRM. RCH.   RUNOFF     PRECIP       ET         HEAD        DEPTH      WIDTH  CONDCTNC.   WAT. TAB.

   1    4    1     1     1    3.0000E-01  3.4737E-04   2.9965E-01  0.000E+00  0.000E+00  0.000E+00  1.40279E+02  4.294E-01  2.326E+00  3.737E-04  0.000E+00  3.474E-04
   1    4    2     1     2    2.9965E-01  3.4724E-04   2.9931E-01  0.000E+00  0.000E+00  0.000E+00  1.39979E+02  4.292E-01  2.326E+00  3.737E-04  0.000E+00  3.472E-04
   1    4    3     1     3    2.9931E-01  3.4710E-04   2.9896E-01  0.000E+00  0.000E+00  0.000E+00  1.39679E+02  4.290E-01  2.326E+00  3.736E-04  0.000E+00  3.471E-04
   1    4    4     1     4    2.9896E-01  3.4696E-04   2.9861E-01  0.000E+00  0.000E+00  0.000E+00  1.39379E+02  4.288E-01  2.326E+00  3.735E-04  0.000E+00  3.470E-04
   1    4    5     1     5    2.9861E-01  3.4682E-04   2.9826E-01  0.000E+00  0.000E+00  0.000E+00  1.39079E+02  4.286E-01  2.325E+00  3.735E-04  0.000E+00  3.468E-04
   1    4    6     1     6    2.9826E-01  3.4669E-04   2.9792E-01  0.000E+00  0.000E+00  0.000E+00  1.38778E+02  4.284E-01  2.325E+00  3.734E-04  0.000E+00  3.467E-04
   1    4    7     1     7    2.9792E-01  3.4655E-04   2.9757E-01  0.000E+00  0.000E+00  0.000E+00  1.38478E+02  4.282E-01  2.325E+00  3.733E-04  0.000E+00  3.466E-04
   1    4    8     1     8    2.9757E-01  3.4641E-04   2.9722E-01  0.000E+00  0.000E+00  0.000E+00  1.38178E+02  4.280E-01  2.325E+00  3.733E-04  0.000E+00  3.464E-04
   1    4    9     1     9    2.9722E-01  3.4628E-04   2.9688E-01  0.000E+00  0.000E+00  0.000E+00  1.37878E+02  4.278E-01  2.324E+00  3.732E-04  0.000E+00  3.463E-04
   1    4   10     1    10    2.9688E-01  3.4614E-04   2.9653E-01  0.000E+00  0.000E+00  0.000E+00  1.37578E+02  4.276E-01  2.324E+00  3.732E-04  0.000E+00  3.461E-04
   1    4   11     1    11    2.9653E-01  3.4600E-04   2.9619E-01  0.000E+00  0.000E+00  0.000E+00  1.37277E+02  4.274E-01  2.324E+00  3.731E-04  0.000E+00  3.460E-04
   1    4   12     1    12    2.9619E-01  3.4586E-04   2.9584E-01  0.000E+00  0.000E+00  0.000E+00  1.36977E+02  4.272E-01  2.324E+00  3.730E-04  0.000E+00  3.459E-04
   1    4   13     1    13    2.9584E-01  3.4573E-04   2.9549E-01  0.000E+00  0.000E+00  0.000E+00  1.36677E+02  4.270E-01  2.323E+00  3.730E-04  0.000E+00  3.457E-04
   1    4   14     1    14    2.9549E-01  3.4559E-04   2.9515E-01  0.000E+00  0.000E+00  0.000E+00  1.36377E+02  4.268E-01  2.323E+00  3.729E-04  0.000E+00  3.456E-04
   1    4   15     1    15    2.9515E-01  3.4545E-04   2.9480E-01  0.000E+00  0.000E+00  0.000E+00  1.36077E+02  4.266E-01  2.323E+00  3.728E-04  0.000E+00  3.455E-04
   1    4   16     1    16    2.9480E-01  3.4531E-04   2.9446E-01  0.000E+00  0.000E+00  0.000E+00  1.35776E+02  4.264E-01  2.323E+00  3.728E-04  0.000E+00  3.453E-04
   1    4   17     1    17    2.9446E-01  3.4518E-04   2.9411E-01  0.000E+00  0.000E+00  0.000E+00  1.35476E+02  4.262E-01  2.322E+00  3.727E-04  0.000E+00  3.452E-04
   1    4   18     1    18    2.9411E-01  3.4504E-04   2.9377E-01  0.000E+00  0.000E+00  0.000E+00  1.35176E+02  4.260E-01  2.322E+00  3.726E-04  0.000E+00  3.450E-04
   1    4   19     1    19    2.9377E-01  3.4490E-04   2.9342E-01  0.000E+00  0.000E+00  0.000E+00  1.34876E+02  4.258E-01  2.322E+00  3.726E-04  0.000E+00  3.449E-04
   1    4   20     1    20    2.9342E-01  3.4477E-04   2.9308E-01  0.000E+00  0.000E+00  0.000E+00  1.34576E+02  4.256E-01  2.322E+00  3.725E-04  0.000E+00  3.448E-04
   1    4   21     1    21    2.9308E-01  3.4463E-04   2.9273E-01  0.000E+00  0.000E+00  0.000E+00  1.34275E+02  4.254E-01  2.321E+00  3.724E-04  0.000E+00  3.446E-04
   1    4   22     1    22    2.9273E-01  3.4449E-04   2.9239E-01  0.000E+00  0.000E+00  0.000E+00  1.33975E+02  4.252E-01  2.321E+00  3.724E-04  0.000E+00  3.445E-04
   1    4   23     1    23    2.9239E-01  3.4435E-04   2.9205E-01  0.000E+00  0.000E+00  0.000E+00  1.33675E+02  4.250E-01  2.321E+00  3.723E-04  0.000E+00  3.444E-04
   1    4   24     1    24    2.9205E-01  3.4422E-04   2.9170E-01  0.000E+00  0.000E+00  0.000E+00  1.33375E+02  4.248E-01  2.321E+00  3.722E-04  0.000E+00  3.442E-04
   1    4   25     1    25    2.9170E-01  3.4408E-04   2.9136E-01  0.000E+00  0.000E+00  0.000E+00  1.33075E+02  4.246E-01  2.320E+00  3.722E-04  0.000E+00  3.441E-04
   1    4   26     1    26    2.9136E-01  3.4394E-04   2.9101E-01  0.000E+00  0.000E+00  0.000E+00  1.32774E+02  4.244E-01  2.320E+00  3.721E-04  0.000E+00  3.439E-04
   1    4   27     1    27    2.9101E-01  3.4381E-04   2.9067E-01  0.000E+00  0.000E+00  0.000E+00  1.32474E+02  4.242E-01  2.320E+00  3.720E-04  0.000E+00  3.438E-04
   1    4   28     1    28    2.9067E-01  3.4367E-04   2.9033E-01  0.000E+00  0.000E+00  0.000E+00  1.32174E+02  4.240E-01  2.320E+00  3.720E-04  0.000E+00  3.437E-04
   1    4   29     1    29    2.9033E-01  3.4353E-04   2.8998E-01  0.000E+00  0.000E+00  0.000E+00  1.31874E+02  4.237E-01  2.319E+00  3.719E-04  0.000E+00  3.435E-04
   1    4   30     1    30    2.8998E-01  3.4339E-04   2.8964E-01  0.000E+00  0.000E+00  0.000E+00  1.31574E+02  4.235E-01  2.319E+00  3.718E-04  0.000E+00  3.434E-04
   1    4   31     1    31    2.8964E-01  3.4326E-04   2.8930E-01  0.000E+00  0.000E+00  0.000E+00  1.31273E+02  4.233E-01  2.319E+00  3.718E-04  0.000E+00  3.433E-04
   1    4   32     1    32    2.8930E-01  3.4312E-04   2.8895E-01  0.000E+00  0.000E+00  0.000E+00  1.30973E+02  4.231E-01  2.319E+00  3.717E-04  0.000E+00  3.431E-04
   1    4   33     1    33    2.8895E-01  3.4298E-04   2.8861E-01  0.000E+00  0.000E+00  0.000E+00  1.30673E+02  4.229E-01  2.319E+00  3.716E-04  0.000E+00  3.430E-04
   1    4   34     1    34    2.8861E-01  3.4285E-04   2.8827E-01  0.000E+00  0.000E+00  0.000E+00  1.30373E+02  4.227E-01  2.318E+00  3.716E-04  0.000E+00  3.428E-04
   1    4   35     1    35    2.8827E-01  3.4271E-04   2.8792E-01  0.000E+00  0.000E+00  0.000E+00  1.30073E+02  4.225E-01  2.318E+00  3.715E-04  0.000E+00  3.427E-04
   1    4   36     1    36    2.8792E-01  3.4257E-04   2.8758E-01  0.000E+00  0.000E+00  0.000E+00  1.29772E+02  4.223E-01  2.318E+00  3.714E-04  0.000E+00  3.426E-04
   1    4   37     1    37    2.8758E-01  3.4244E-04   2.8724E-01  0.000E+00  0.000E+00  0.000E+00  1.29472E+02  4.221E-01  2.318E+00  3.714E-04  0.000E+00  3.424E-04
   1    4   38     1    38    2.8724E-01  3.4230E-04   2.8690E-01  0.000E+00  0.000E+00  0.000E+00  1.29172E+02  4.219E-01  2.317E+00  3.713E-04  0.000E+00  3.423E-04
   1    4   39     1    39    2.8690E-01  3.4216E-04   2.8655E-01  0.000E+00  0.000E+00  0.000E+00  1.28872E+02  4.217E-01  2.317E+00  3.712E-04  0.000E+00  3.422E-04
   1    4   40     1    40    2.8655E-01  3.4203E-04   2.8621E-01  0.000E+00  0.000E+00  0.000E+00  1.28572E+02  4.215E-01  2.317E+00  3.712E-04  0.000E+00  3.420E-04
   1    4   41     1    41    2.8621E-01  3.4189E-04   2.8587E-01  0.000E+00  0.000E+00  0.000E+00  1.28271E+02  4.213E-01  2.317E+00  3.711E-04  0.000E+00  3.419E-04
   1    4   42     1    42    2.8587E-01  3.4175E-04   2.8553E-01  0.000E+00  0.000E+00  0.000E+00  1.27971E+02  4.211E-01  2.316E+00  3.710E-04  0.000E+00  3.418E-04
   1    4   43     1    43    2.8553E-01  3.4162E-04   2.8519E-01  0.000E+00  0.000E+00  0.000E+00  1.27671E+02  4.209E-01  2.316E+00  3.710E-04  0.000E+00  3.416E-04
   1    4   44     1    44    2.8519E-01  3.4148E-04   2.8485E-01  0.000E+00  0.000E+00  0.000E+00  1.27371E+02  4.207E-01  2.316E+00  3.709E-04  0.000E+00  3.415E-04
   1    4   45     1    45    2.8485E-01  3.4134E-04   2.8450E-01  0.000E+00  0.000E+00  0.000E+00  1.27070E+02  4.205E-01  2.316E+00  3.708E-04  0.000E+00  3.413E-04
   1    4   46     1    46    2.8450E-01  3.4121E-04   2.8416E-01  0.000E+00  0.000E+00  0.000E+00  1.26770E+02  4.203E-01  2.315E+00  3.708E-04  0.000E+00  3.412E-04
   1    4   47     1    47    2.8416E-01  3.4107E-04   2.8382E-01  0.000E+00  0.000E+00  0.000E+00  1.26470E+02  4.201E-01  2.315E+00  3.707E-04  0.000E+00  3.411E-04
   1    4   48     1    48    2.8382E-01  3.4093E-04   2.8348E-01  0.000E+00  0.000E+00  0.000E+00  1.26170E+02  4.199E-01  2.315E+00  3.706E-04  0.000E+00  3.409E-04
   1    4   49     1    49    2.8348E-01  3.4080E-04   2.8314E-01  0.000E+00  0.000E+00  0.000E+00  1.25870E+02  4.197E-01  2.315E+00  3.706E-04  0.000E+00  3.408E-04
   1    4   50     1    50    2.8314E-01  3.4066E-04   2.8280E-01  0.000E+00  0.000E+00  0.000E+00  1.25569E+02  4.195E-01  2.314E+00  3.705E-04  0.000E+00  3.407E-04
   1    4   51     1    51    2.8280E-01  3.4052E-04   2.8246E-01  0.000E+00  0.000E+00  0.000E+00  1.25269E+02  4.193E-01  2.314E+00  3.704E-04  0.000E+00  3.405E-04
   1    4   52     1    52    2.8246E-01  3.4039E-04   2.8212E-01  0.000E+00  0.000E+00  0.000E+00  1.24969E+02  4.191E-01  2.314E+00  3.704E-04  0.000E+00  3.404E-04
   1    4   53     1    53    2.8212E-01  3.4025E-04   2.8178E-01  0.000E+00  0.000E+00  0.000E+00  1.24669E+02  4.189E-01  2.314E+00  3.703E-04  0.000E+00  3.402E-04
   1    4   54     1    54    2.8178E-01  3.4011E-04   2.8144E-01  0.000E+00  0.000E+00  0.000E+00  1.24369E+02  4.187E-01  2.313E+00  3.702E-04  0.000E+00  3.401E-04
   1    4   55     1    55    2.8144E-01  3.3998E-04   2.8110E-01  0.000E+00  0.000E+00  0.000E+00  1.24068E+02  4.185E-01  2.313E+00  3.702E-04  0.000E+00  3.400E-04
   1    4   56     1    56    2.8110E-01  3.3984E-04   2.8076E-01  0.000E+00  0.000E+00  0.000E+00  1.23768E+02  4.182E-01  2.313E+00  3.701E-04  0.000E+00  3.398E-04
   1    4   57     1    57    2.8076E-01  3.3970E-04   2.8042E-01  0.000E+00  0.000E+00  0.000E+00  1.23468E+02  4.180E-01  2.313E+00  3.700E-04  0.000E+00  3.397E-04
   1    4   58     1    58    2.8042E-01  3.3957E-04   2.8008E-01  0.000E+00  0.000E+00  0.000E+00  1.23168E+02  4.178E-01  2.312E+00  3.700E-04  0.000E+00  3.396E-04
   1    4   59     1    59    2.8008E-01  3.3943E-04   2.7974E-01  0.000E+00  0.000E+00  0.000E+00  1.22868E+02  4.176E-01  2.312E+00  3.699E-04  0.000E+00  3.394E-04
   1    4   60     1    60    2.7974E-01  3.3929E-04   2.7940E-01  0.000E+00  0.000E+00  0.000E+00  1.22567E+02  4.174E-01  2.312E+00  3.698E-04  0.000E+00  3.393E-04
   1    4   61     1    61    2.7940E-01  3.3916E-04   2.7906E-01  0.000E+00  0.000E+00  0.000E+00  1.22267E+02  4.172E-01  2.312E+00  3.698E-04  0.000E+00  3.392E-04
   1    4   62     1    62    2.7906E-01  3.3902E-04   2.7872E-01  0.000E+00  0.000E+00  0.000E+00  1.21967E+02  4.170E-01  2.311E+00  3.697E-04  0.000E+00  3.390E-04
   1    4   63     1    63    2.7872E-01  3.3889E-04   2.7838E-01  0.000E+00  0.000E+00  0.000E+00  1.21667E+02  4.168E-01  2.311E+00  3.696E-04  0.000E+00  3.389E-04
   1    4   64     1    64    2.7838E-01  3.3875E-04   2.7804E-01  0.000E+00  0.000E+00  0.000E+00  1.21367E+02  4.166E-01  2.311E+00  3.696E-04  0.000E+00  3.387E-04
   1    4   65     1    65    2.7804E-01  3.3861E-04   2.7771E-01  0.000E+00  0.000E+00  0.000E+00  1.21066E+02  4.164E-01  2.311E+00  3.695E-04  0.000E+00  3.386E-04
   1    4   66     1    66    2.7771E-01  3.3848E-04   2.7737E-01  0.000E+00  0.000E+00  0.000E+00  1.20766E+02  4.162E-01  2.310E+00  3.694E-04  0.000E+00  3.385E-04
   1    4   67     1    67    2.7737E-01  3.3834E-04   2.7703E-01  0.000E+00  0.000E+00  0.000E+00  1.20466E+02  4.160E-01  2.310E+00  3.694E-04  0.000E+00  3.383E-04
   1    4   68     1    68    2.7703E-01  3.3820E-04   2.7669E-01  0.000E+00  0.000E+00  0.000E+00  1.20166E+02  4.158E-01  2.310E+00  3.693E-04  0.000E+00  3.382E-04
   1    4   69     1    69    2.7669E-01  3.3807E-04   2.7635E-01  0.000E+00  0.000E+00  0.000E+00  1.19866E+02  4.156E-01  2.310E+00  3.692E-04  0.000E+00  3.381E-04
   1    4   70     1    70    2.7635E-01  3.3793E-04   2.7601E-01  0.000E+00  0.000E+00  0.000E+00  1.19565E+02  4.154E-01  2.309E+00  3.692E-04  0.000E+00  3.379E-04
   1    4   71     1    71    2.7601E-01  3.3779E-04   2.7568E-01  0.000E+00  0.000E+00  0.000E+00  1.19265E+02  4.152E-01  2.309E+00  3.691E-04  0.000E+00  3.378E-04
   1    4   72     1    72    2.7568E-01  3.3766E-04   2.7534E-01  0.000E+00  0.000E+00  0.000E+00  1.18965E+02  4.150E-01  2.309E+00  3.690E-04  0.000E+00  3.377E-04
   1    4   73     1    73    2.7534E-01  3.3752E-04   2.7500E-01  0.000E+00  0.000E+00  0.000E+00  1.18665E+02  4.148E-01  2.309E+00  3.690E-04  0.000E+00  3.375E-04
   1    4   74     1    74    2.7500E-01  3.3739E-04   2.7466E-01  0.000E+00  0.000E+00  0.000E+00  1.18365E+02  4.146E-01  2.309E+00  3.689E-04  0.000E+00  3.374E-04
   1    4   75     1    75    2.7466E-01  3.3725E-04   2.7433E-01  0.000E+00  0.000E+00  0.000E+00  1.18064E+02  4.144E-01  2.308E+00  3.688E-04  0.000E+00  3.373E-04
   1    4   76     1    76    2.7433E-01  3.3711E-04   2.7399E-01  0.000E+00  0.000E+00  0.000E+00  1.17764E+02  4.142E-01  2.308E+00  3.688E-04  0.000E+00  3.371E-04
   1    4   77     1    77    2.7399E-01  3.3698E-04   2.7365E-01  0.000E+00  0.000E+00  0.000E+00  1.17464E+02  4.140E-01  2.308E+00  3.687E-04  0.000E+00  3.370E-04
   1    4   78     1    78    2.7365E-01  3.3684E-04   2.7332E-01  0.000E+00  0.000E+00  0.000E+00  1.17164E+02  4.138E-01  2.308E+00  3.686E-04  0.000E+00  3.368E-04
   1    4   79     1    79    2.7332E-01  3.3671E-04   2.7298E-01  0.000E+00  0.000E+00  0.000E+00  1.16864E+02  4.136E-01  2.307E+00  3.686E-04  0.000E+00  3.367E-04
   1    4   80     1    80    2.7298E-01  3.3657E-04   2.7264E-01  0.000E+00  0.000E+00  0.000E+00  1.16563E+02  4.134E-01  2.307E+00  3.685E-04  0.000E+00  3.366E-04
   1    4   81     1    81    2.7264E-01  3.3643E-04   2.7231E-01  0.000E+00  0.000E+00  0.000E+00  1.16263E+02  4.132E-01  2.307E+00  3.684E-04  0.000E+00  3.364E-04
   1    4   82     1    82    2.7231E-01  3.3630E-04   2.7197E-01  0.000E+00  0.000E+00  0.000E+00  1.15963E+02  4.129E-01  2.307E+00  3.684E-04  0.000E+00  3.363E-04
   1    4   83     1    83    2.7197E-01  3.3616E-04   2.7163E-01  0.000E+00  0.000E+00  0.000E+00  1.15663E+02  4.127E-01  2.306E+00  3.683E-04  0.000E+00  3.362E-04
   1    4   84     1    84    2.7163E-01  3.3603E-04   2.7130E-01  0.000E+00  0.000E+00  0.000E+00  1.15363E+02  4.125E-01  2.306E+00  3.682E-04  0.000E+00  3.360E-04
   1    4   85     1    85    2.7130E-01  3.3589E-04   2.7096E-01  0.000E+00  0.000E+00  0.000E+00  1.15062E+02  4.123E-01  2.306E+00  3.682E-04  0.000E+00  3.359E-04
   1    4   86     1    86    2.7096E-01  3.3575E-04   2.7063E-01  0.000E+00  0.000E+00  0.000E+00  1.14762E+02  4.121E-01  2.306E+00  3.681E-04  0.000E+00  3.358E-04
   1    4   87     1    87    2.7063E-01  3.3562E-04   2.7029E-01  0.000E+00  0.000E+00  0.000E+00  1.14462E+02  4.119E-01  2.305E+00  3.680E-04  0.000E+00  3.356E-04
   1    4   88     1    88    2.7029E-01  3.3548E-04   2.6996E-01  0.000E+00  0.000E+00  0.000E+00  1.14162E+02  4.117E-01  2.305E+00  3.680E-04  0.000E+00  3.355E-04
   1    4   89     1    89    2.6996E-01  3.3535E-04   2.6962E-01  0.000E+00  0.000E+00  0.000E+00  1.13862E+02  4.115E-01  2.305E+00  3.679E-04  0.000E+00  3.353E-04
   1    4   90     1    90    2.6962E-01  3.3521E-04   2.6928E-01  0.000E+00  0.000E+00  0.000E+00  1.13561E+02  4.113E-01  2.305E+00  3.678E-04  0.000E+00  3.352E-04
[...]
   1    4   38     1    38    8.7949E-01  5.5085E-04   8.7894E-01  0.000E+00  0.000E+00  0.000E+00  1.29446E+02  6.958E-01  2.645E+00  4.607E-04  5.564E-04 -5.599E-06
   1    4   39     1    39    8.7894E-01  5.5067E-04   8.7839E-01  0.000E+00  0.000E+00  0.000E+00  1.29146E+02  6.956E-01  2.645E+00  4.606E-04  5.561E-04 -5.451E-06
   1    4   40     1    40    8.7839E-01  5.5049E-04   8.7784E-01  0.000E+00  0.000E+00  0.000E+00  1.28845E+02  6.954E-01  2.644E+00  4.605E-04  5.558E-04 -5.307E-06
   1    4   41     1    41    8.7784E-01  5.5031E-04   8.7729E-01  0.000E+00  0.000E+00  0.000E+00  1.28545E+02  6.951E-01  2.644E+00  4.605E-04  5.555E-04 -5.167E-06
   1    4   42     1    42    8.7729E-01  5.5013E-04   8.7674E-01  0.000E+00  0.000E+00  0.000E+00  1.28245E+02  6.949E-01  2.644E+00  4.604E-04  5.552E-04 -5.030E-06
   1    4   43     1    43    8.7674E-01  5.4995E-04   8.7619E-01  0.000E+00  0.000E+00  0.000E+00  1.27945E+02  6.947E-01  2.644E+00  4.603E-04  5.548E-04 -4.898E-06
   1    4   44     1    44    8.7619E-01  5.4977E-04   8.7564E-01  0.000E+00  0.000E+00  0.000E+00  1.27645E+02  6.945E-01  2.643E+00  4.602E-04  5.545E-04 -4.771E-06
   1    4   45     1    45    8.7564E-01  5.4959E-04   8.7509E-01  0.000E+00  0.000E+00  0.000E+00  1.27344E+02  6.943E-01  2.643E+00  4.602E-04  5.542E-04 -4.648E-06
   1    4   46     1    46    8.7509E-01  5.4941E-04   8.7454E-01  0.000E+00  0.000E+00  0.000E+00  1.27044E+02  6.941E-01  2.643E+00  4.601E-04  5.539E-04 -4.530E-06
   1    4   47     1    47    8.7454E-01  5.4924E-04   8.7399E-01  0.000E+00  0.000E+00  0.000E+00  1.26744E+02  6.939E-01  2.643E+00  4.600E-04  5.537E-04 -4.417E-06
   1    4   48     1    48    8.7399E-01  5.4906E-04   8.7344E-01  0.000E+00  0.000E+00  0.000E+00  1.26444E+02  6.937E-01  2.642E+00  4.600E-04  5.534E-04 -4.310E-06
   1    4   49     1    49    8.7344E-01  5.4888E-04   8.7289E-01  0.000E+00  0.000E+00  0.000E+00  1.26143E+02  6.935E-01  2.642E+00  4.599E-04  5.530E-04 -4.102E-06
   1    4   50     1    50    8.7289E-01  5.4870E-04   8.7235E-01  0.000E+00  0.000E+00  0.000E+00  1.25843E+02  6.932E-01  2.642E+00  4.598E-04  5.526E-04 -3.879E-06
   1    4   51     1    51    8.7235E-01  5.4852E-04   8.7180E-01  0.000E+00  0.000E+00  0.000E+00  1.25543E+02  6.930E-01  2.642E+00  4.598E-04  5.522E-04 -3.727E-06
   1    4   52     1    52    8.7180E-01  5.4834E-04   8.7125E-01  0.000E+00  0.000E+00  0.000E+00  1.25243E+02  6.928E-01  2.641E+00  4.597E-04  5.520E-04 -3.652E-06
   1    4   53     1    53    8.7125E-01  5.4816E-04   8.7070E-01  0.000E+00  0.000E+00  0.000E+00  1.24943E+02  6.926E-01  2.641E+00  4.596E-04  5.517E-04 -3.583E-06
   1    4   54     1    54    8.7070E-01  5.4798E-04   8.7015E-01  0.000E+00  0.000E+00  0.000E+00  1.24642E+02  6.924E-01  2.641E+00  4.596E-04  5.515E-04 -3.521E-06
   1    4   55     1    55    8.7015E-01  5.4781E-04   8.6960E-01  0.000E+00  0.000E+00  0.000E+00  1.24342E+02  6.922E-01  2.641E+00  4.595E-04  5.513E-04 -3.465E-06
   1    4   56     1    56    8.6960E-01  5.4763E-04   8.6906E-01  0.000E+00  0.000E+00  0.000E+00  1.24042E+02  6.920E-01  2.640E+00  4.594E-04  5.510E-04 -3.417E-06
   1    4   57     1    57    8.6906E-01  5.4745E-04   8.6851E-01  0.000E+00  0.000E+00  0.000E+00  1.23742E+02  6.918E-01  2.640E+00  4.594E-04  5.508E-04 -3.376E-06
   1    4   58     1    58    8.6851E-01  5.4727E-04   8.6796E-01  0.000E+00  0.000E+00  0.000E+00  1.23442E+02  6.916E-01  2.640E+00  4.593E-04  5.506E-04 -3.343E-06
   1    4   59     1    59    8.6796E-01  5.4709E-04   8.6742E-01  0.000E+00  0.000E+00  0.000E+00  1.23141E+02  6.914E-01  2.640E+00  4.592E-04  5.504E-04 -3.319E-06
   1    4   60     1    60    8.6742E-01  5.4691E-04   8.6687E-01  0.000E+00  0.000E+00  0.000E+00  1.22841E+02  6.911E-01  2.639E+00  4.592E-04  5.502E-04 -3.303E-06
   1    4   61     1    61    8.6687E-01  5.4674E-04   8.6632E-01  0.000E+00  0.000E+00  0.000E+00  1.22541E+02  6.909E-01  2.639E+00  4.591E-04  5.500E-04 -3.297E-06
   1    4   62     1    62    8.6632E-01  5.4656E-04   8.6577E-01  0.000E+00  0.000E+00  0.000E+00  1.22241E+02  6.907E-01  2.639E+00  4.590E-04  5.499E-04 -3.299E-06
   1    4   63     1    63    8.6577E-01  5.4638E-04   8.6523E-01  0.000E+00  0.000E+00  0.000E+00  1.21941E+02  6.905E-01  2.639E+00  4.589E-04  5.497E-04 -3.306E-06
   1    4   64     1    64    8.6523E-01  5.4620E-04   8.6468E-01  0.000E+00  0.000E+00  0.000E+00  1.21640E+02  6.903E-01  2.638E+00  4.589E-04  5.495E-04 -3.308E-06
   1    4   65     1    65    8.6468E-01  5.4602E-04   8.6414E-01  0.000E+00  0.000E+00  0.000E+00  1.21340E+02  6.901E-01  2.638E+00  4.588E-04  5.493E-04 -3.275E-06
   1    4   66     1    66    8.6414E-01  5.4585E-04   8.6359E-01  0.000E+00  0.000E+00  0.000E+00  1.21040E+02  6.899E-01  2.638E+00  4.587E-04  5.237E-04  2.214E-05
   1    4   67     1    67    8.6359E-01  5.4567E-04   8.6304E-01  0.000E+00  0.000E+00  0.000E+00  1.20740E+02  6.897E-01  2.638E+00  4.587E-04  4.815E-04  6.416E-05
   1    4   68     1    68    8.6304E-01  5.4549E-04   8.6250E-01  0.000E+00  0.000E+00  0.000E+00  1.20439E+02  6.895E-01  2.637E+00  4.586E-04  4.371E-04  1.084E-04
   1    4   69     1    69    8.6250E-01  5.4531E-04   8.6195E-01  0.000E+00  0.000E+00  0.000E+00  1.20139E+02  6.893E-01  2.637E+00  4.585E-04  3.903E-04  1.550E-04
   1    4   70     1    70    8.6195E-01  5.4513E-04   8.6141E-01  0.000E+00  0.000E+00  0.000E+00  1.19839E+02  6.890E-01  2.637E+00  4.585E-04  3.413E-04  2.038E-04
   1    4   71     1    71    8.6141E-01  5.4496E-04   8.6086E-01  0.000E+00  0.000E+00  0.000E+00  1.19539E+02  6.888E-01  2.637E+00  4.584E-04  2.907E-04  2.543E-04
   1    4   72     1    72    8.6086E-01  5.4478E-04   8.6032E-01  0.000E+00  0.000E+00  0.000E+00  1.19239E+02  6.886E-01  2.636E+00  4.583E-04  2.386E-04  3.062E-04
   1    4   73     1    73    8.6032E-01  5.4460E-04   8.5977E-01  0.000E+00  0.000E+00  0.000E+00  1.18938E+02  6.884E-01  2.636E+00  4.583E-04  1.825E-04  3.621E-04
   1    4   74     1    74    8.5977E-01  5.4442E-04   8.5923E-01  0.000E+00  0.000E+00  0.000E+00  1.18638E+02  6.882E-01  2.636E+00  4.582E-04  1.241E-04  4.203E-04
   1    4   75     1    75    8.5923E-01  5.4424E-04   8.5869E-01  0.000E+00  0.000E+00  0.000E+00  1.18338E+02  6.880E-01  2.636E+00  4.581E-04  8.328E-05  4.610E-04
   1    4   76     1    76    8.5869E-01  5.4407E-04   8.5814E-01  0.000E+00  0.000E+00  0.000E+00  1.18038E+02  6.878E-01  2.635E+00  4.581E-04  8.319E-05  4.609E-04
   1    4   77     1    77    8.5814E-01  5.4389E-04   8.5760E-01  0.000E+00  0.000E+00  0.000E+00  1.17738E+02  6.876E-01  2.635E+00  4.580E-04  8.315E-05  4.607E-04
   1    4   78     1    78    8.5760E-01  5.4371E-04   8.5705E-01  0.000E+00  0.000E+00  0.000E+00  1.17437E+02  6.874E-01  2.635E+00  4.579E-04  8.314E-05  4.606E-04
   1    4   79     1    79    8.5705E-01  5.4353E-04   8.5651E-01  0.000E+00  0.000E+00  0.000E+00  1.17137E+02  6.871E-01  2.635E+00  4.578E-04  8.315E-05  4.604E-04
   1    4   80     1    80    8.5651E-01  5.4336E-04   8.5597E-01  0.000E+00  0.000E+00  0.000E+00  1.16837E+02  6.869E-01  2.634E+00  4.578E-04  8.318E-05  4.602E-04
   1    4   81     1    81    8.5597E-01  5.4318E-04   8.5542E-01  0.000E+00  0.000E+00  0.000E+00  1.16537E+02  6.867E-01  2.634E+00  4.577E-04  8.322E-05  4.600E-04
   1    4   82     1    82    8.5542E-01  5.4300E-04   8.5488E-01  0.000E+00  0.000E+00  0.000E+00  1.16237E+02  6.865E-01  2.634E+00  4.576E-04  8.328E-05  4.597E-04
   1    4   83     1    83    8.5488E-01  5.4282E-04   8.5434E-01  0.000E+00  0.000E+00  0.000E+00  1.15936E+02  6.863E-01  2.634E+00  4.576E-04  8.335E-05  4.595E-04
   1    4   84     1    84    8.5434E-01  5.4265E-04   8.5380E-01  0.000E+00  0.000E+00  0.000E+00  1.15636E+02  6.861E-01  2.633E+00  4.575E-04  8.341E-05  4.592E-04
   1    4   85     1    85    8.5380E-01  5.4247E-04   8.5325E-01  0.000E+00  0.000E+00  0.000E+00  1.15336E+02  6.859E-01  2.633E+00  4.574E-04  8.409E-05  4.584E-04
   1    4   86     1    86    8.5325E-01  5.4229E-04   8.5271E-01  0.000E+00  0.000E+00  0.000E+00  1.15036E+02  6.857E-01  2.633E+00  4.574E-04  8.989E-05  4.524E-04
   1    4   87     1    87    8.5271E-01  5.4212E-04   8.5217E-01  0.000E+00  0.000E+00  0.000E+00  1.14735E+02  6.855E-01  2.633E+00  4.573E-04  1.110E-04  4.311E-04
   1    4   88     1    88    8.5217E-01  5.4194E-04   8.5163E-01  0.000E+00  0.000E+00  0.000E+00  1.14435E+02  6.853E-01  2.632E+00  4.572E-04  1.329E-04  4.090E-04
   1    4   89     1    89    8.5163E-01  5.4176E-04   8.5108E-01  0.000E+00  0.000E+00  0.000E+00  1.14135E+02  6.851E-01  2.632E+00  4.572E-04  1.416E-04  4.002E-04
   1    4   90     1    90    8.5108E-01  5.4158E-04   8.5054E-01  0.000E+00  0.000E+00  0.000E+00  1.13835E+02  6.848E-01  2.632E+00  4.571E-04  1.419E-04  3.997E-04
   1    4   91     1    91    8.5054E-01  5.4141E-04   8.5000E-01  0.000E+00  0.000E+00  0.000E+00  1.13535E+02  6.846E-01  2.632E+00  4.570E-04  1.423E-04  3.991E-04
   1    4   92     1    92    8.5000E-01  5.4123E-04   8.4946E-01  0.000E+00  0.000E+00  0.000E+00  1.13234E+02  6.844E-01  2.631E+00  4.570E-04  1.427E-04  3.985E-04
   1    4   93     1    93    8.4946E-01  5.4105E-04   8.4892E-01  0.000E+00  0.000E+00  0.000E+00  1.12934E+02  6.842E-01  2.631E+00  4.569E-04  1.433E-04  3.978E-04
   1    4   94     1    94    8.4892E-01  5.4088E-04   8.4838E-01  0.000E+00  0.000E+00  0.000E+00  1.12634E+02  6.840E-01  2.631E+00  4.568E-04  1.438E-04  3.970E-04
   1    4   95     1    95    8.4838E-01  5.4070E-04   8.4784E-01  0.000E+00  0.000E+00  0.000E+00  1.12334E+02  6.838E-01  2.631E+00  4.568E-04  1.457E-04  3.950E-04
   1    4   96     1    96    8.4784E-01  5.4052E-04   8.4730E-01  0.000E+00  0.000E+00  0.000E+00  1.12034E+02  6.836E-01  2.630E+00  4.567E-04  1.482E-04  3.923E-04
   1    4   97     1    97    8.4730E-01  5.4035E-04   8.4676E-01  0.000E+00  0.000E+00  0.000E+00  1.11733E+02  6.834E-01  2.630E+00  4.566E-04  1.491E-04  3.913E-04
   1    4   98     1    98    8.4676E-01  5.4017E-04   8.4622E-01  0.000E+00  0.000E+00  0.000E+00  1.11433E+02  6.832E-01  2.630E+00  4.565E-04  1.500E-04  3.902E-04
   1    4   99     1    99    8.4622E-01  5.3999E-04   8.4568E-01  0.000E+00  0.000E+00  0.000E+00  1.11133E+02  6.830E-01  2.630E+00  4.565E-04  1.513E-04  3.887E-04
   1    4  100     1   100    8.4568E-01  5.3982E-04   8.4514E-01  0.000E+00  0.000E+00  0.000E+00  1.10833E+02  6.827E-01  2.629E+00  4.564E-04  1.676E-04  3.722E-04



1
  VOLUMETRIC BUDGET FOR UNSATURATED ZONE BENEATH STREAMS AT END OF TIME STEP  30 STRESS PERIOD  50
  ------------------------------------------------------------------------------------------------

    CUMULATIVE VOLUMES             L**3    RATES FOR THIS TIME STEP         L**3/T
    ------------------                     ------------------------


          STREAM LOSS =     35725827.1375            STREAM LOSS =        5.4863E-02
    CHANGE IN STORAGE =       318112.6794      CHANGE IN STORAGE =        1.9278E-02
       RECHARGE TO GW =     35411706.9534         RECHARGE TO GW =        3.5585E-02

             TOTAL IN =     35725827.1375               TOTAL IN =        5.4863E-02

            TOTAL OUT =     35729819.6329              TOTAL OUT =        5.4863E-02

             IN - OUT =        -3992.4954               IN - OUT =            0.0000

  PERCENT DISCREPANCY =           -0.00      PERCENT DISCREPANCY =             0.00



1
              HEAD IN LAYER   1 AT END OF TIME STEP  30 IN STRESS PERIOD   50
  ---------------------------------------------------------------------------

          1      2      3      4      5      6      7      8      9     10
         11     12     13     14     15     16     17     18     19     20
         21     22     23     24     25     26     27     28     29     30
         31     32     33     34     35     36     37     38     39     40
         41     42     43     44     45     46     47     48     49     50
         51     52     53     54     55     56     57     58     59     60
         61     62     63     64     65     66     67     68     69     70
         71     72     73     74     75     76     77     78     79     80
         81     82     83     84     85     86     87     88     89     90
         91     92     93     94     95     96     97     98     99    100
 .........................................................................
   1   115.2  115.2  115.2  115.2  115.2  115.1  115.1  115.0  115.0  114.9
       114.9  114.8  114.7  114.7  114.6  114.5  114.4  114.3  114.2  114.1
       114.0  113.8  113.7  113.6  113.4  113.3  113.1  112.9  112.8  112.6
       112.4  112.2  112.0  111.8  111.6  111.3  111.1  110.9  110.6  110.4
       110.1  109.8  109.5  109.2  109.0  108.6  108.3  108.0  107.7  107.3
       107.0  106.6  106.3  105.9  105.5  105.1  104.7  104.3  103.8  103.4
       102.9  102.5  102.0  101.5  101.0  100.5  100.0   99.5   98.9   98.4
        97.8   97.2   96.6   96.0   95.4   94.8   94.1   93.5   92.8   92.1
        91.4   90.7   89.9   89.2   88.4   87.6   86.8   86.0   85.2   84.4
        83.5   82.6   81.7   80.8   79.9   78.9   78.0   77.0   76.0   75.0
   2   115.2  115.2  115.2  115.2  115.2  115.1  115.1  115.0  115.0  114.9
       114.9  114.8  114.7  114.7  114.6  114.5  114.4  114.3  114.2  114.1
       114.0  113.8  113.7  113.6  113.4  113.3  113.1  112.9  112.8  112.6
       112.4  112.2  112.0  111.8  111.6  111.3  111.1  110.9  110.6  110.4
       110.1  109.8  109.5  109.2  109.0  108.6  108.3  108.0  107.7  107.3
       107.0  106.6  106.3  105.9  105.5  105.1  104.7  104.3  103.8  103.4
       102.9  102.5  102.0  101.5  101.0  100.5  100.0   99.5   98.9   98.4
        97.8   97.2   96.6   96.0   95.4   94.8   94.1   93.5   92.8   92.1
        91.4   90.7   89.9   89.2   88.4   87.6   86.8   86.0   85.2   84.4
        83.5   82.6   81.7   80.8   79.9   78.9   78.0   77.0   76.0   75.0
   3   115.2  115.2  115.2  115.2  115.2  115.1  115.1  115.0  115.0  114.9
       114.9  114.8  114.8  114.7  114.6  114.5  114.4  114.3  114.2  114.1
       114.0  113.8  113.7  113.6  113.4  113.3  113.1  112.9  112.8  112.6
       112.4  112.2  112.0  111.8  111.6  111.3  111.1  110.9  110.6  110.4
       110.1  109.8  109.5  109.3  109.0  108.6  108.3  108.0  107.7  107.3
       107.0  106.6  106.3  105.9  105.5  105.1  104.7  104.3  103.8  103.4
       102.9  102.5  102.0  101.5  101.0  100.5  100.0   99.5   98.9   98.4
        97.8   97.2   96.6   96.0   95.4   94.8   94.1   93.5   92.8   92.1
        91.4   90.7   89.9   89.2   88.4   87.6   86.8   86.0   85.2   84.4
        83.5   82.6   81.7   80.8   79.9   78.9   78.0   77.0   76.0   75.0
   4   115.2  115.2  115.2  115.2  115.2  115.1  115.1  115.0  115.0  114.9
       114.9  114.8  114.8  114.7  114.6  114.5  114.4  114.3  114.2  114.1
       114.0  113.8  113.7  113.6  113.4  113.3  113.1  112.9  112.8  112.6
       112.4  112.2  112.0  111.8  111.6  111.3  111.1  110.9  110.6  110.4
       110.1  109.8  109.5  109.3  109.0  108.6  108.3  108.0  107.7  107.3
       107.0  106.6  106.3  105.9  105.5  105.1  104.7  104.3  103.8  103.4
       102.9  102.5  102.0  101.5  101.0  100.5  100.0   99.5   98.9   98.4
        97.8   97.2   96.6   96.0   95.4   94.8   94.1   93.5   92.8   92.1
        91.4   90.7   89.9   89.2   88.4   87.6   86.8   86.0   85.2   84.4
        83.5   82.6   81.7   80.8   79.9   78.9   78.0   77.0   76.0   75.0
   5   115.2  115.2  115.2  115.2  115.2  115.1  115.1  115.0  115.0  114.9
       114.9  114.8  114.8  114.7  114.6  114.5  114.4  114.3  114.2  114.1
       114.0  113.8  113.7  113.6  113.4  113.3  113.1  112.9  112.8  112.6
       112.4  112.2  112.0  111.8  111.6  111.3  111.1  110.9  110.6  110.4
       110.1  109.8  109.5  109.3  109.0  108.6  108.3  108.0  107.7  107.3
       107.0  106.6  106.3  105.9  105.5  105.1  104.7  104.3  103.8  103.4
       102.9  102.5  102.0  101.5  101.0  100.5  100.0   99.5   98.9   98.4
        97.8   97.2   96.6   96.0   95.4   94.8   94.1   93.5   92.8   92.1
        91.4   90.7   89.9   89.2   88.4   87.6   86.8   86.0   85.2   84.4
        83.5   82.6   81.7   80.8   79.9   78.9   78.0   77.0   76.0   75.0
   6   115.2  115.2  115.2  115.2  115.2  115.1  115.1  115.0  115.0  114.9
       114.9  114.8  114.7  114.7  114.6  114.5  114.4  114.3  114.2  114.1
       114.0  113.8  113.7  113.6  113.4  113.3  113.1  112.9  112.8  112.6
       112.4  112.2  112.0  111.8  111.6  111.3  111.1  110.9  110.6  110.4
       110.1  109.8  109.5  109.2  109.0  108.6  108.3  108.0  107.7  107.3
       107.0  106.6  106.3  105.9  105.5  105.1  104.7  104.3  103.8  103.4
       102.9  102.5  102.0  101.5  101.0  100.5  100.0   99.5   98.9   98.4
        97.8   97.2   96.6   96.0   95.4   94.8   94.1   93.5   92.8   92.1
        91.4   90.7   89.9   89.2   88.4   87.6   86.8   86.0   85.2   84.4
        83.5   82.6   81.7   80.8   79.9   78.9   78.0   77.0   76.0   75.0
   7   115.2  115.2  115.2  115.2  115.2  115.1  115.1  115.0  115.0  114.9
       114.9  114.8  114.7  114.7  114.6  114.5  114.4  114.3  114.2  114.1
       114.0  113.8  113.7  113.6  113.4  113.3  113.1  112.9  112.8  112.6
       112.4  112.2  112.0  111.8  111.6  111.3  111.1  110.9  110.6  110.4
       110.1  109.8  109.5  109.2  109.0  108.6  108.3  108.0  107.7  107.3
       107.0  106.6  106.3  105.9  105.5  105.1  104.7  104.3  103.8  103.4
       102.9  102.5  102.0  101.5  101.0  100.5  100.0   99.5   98.9   98.4
        97.8   97.2   96.6   96.0   95.4   94.8   94.1   93.5   92.8   92.1
        91.4   90.7   89.9   89.2   88.4   87.6   86.8   86.0   85.2   84.4
        83.5   82.6   81.7   80.8   79.9   78.9   78.0   77.0   76.0   75.0

 HEAD WILL BE SAVED ON UNIT  161 AT END OF TIME STEP   30, STRESS PERIOD   50
1
  VOLUMETRIC BUDGET FOR ENTIRE MODEL AT END OF TIME STEP   30, STRESS PERIOD  50
  ------------------------------------------------------------------------------

     CUMULATIVE VOLUMES      L**3       RATES FOR THIS TIME STEP      L**3/T
     ------------------                 ------------------------

           IN:                                      IN:
           ---                                      ---
             STORAGE =    18288083.8273               STORAGE =           0.1473
       CONSTANT HEAD =           0.0000         CONSTANT HEAD =           0.0000
     HEAD DEP BOUNDS =           0.0000       HEAD DEP BOUNDS =           0.0000
      STREAM LEAKAGE =    35411706.9534        STREAM LEAKAGE =       3.5585E-02

            TOTAL IN =    53699790.7807              TOTAL IN =           0.1829

          OUT:                                     OUT:
          ----                                     ----
             STORAGE =    17095499.4734               STORAGE =           0.0000
       CONSTANT HEAD =           0.0000         CONSTANT HEAD =           0.0000
     HEAD DEP BOUNDS =    36604298.3803       HEAD DEP BOUNDS =           0.1829
      STREAM LEAKAGE =           0.0000        STREAM LEAKAGE =           0.0000

           TOTAL OUT =    53699797.8537             TOTAL OUT =           0.1829

            IN - OUT =          -7.0730              IN - OUT =      -2.5977E-07

 PERCENT DISCREPANCY =          -0.00     PERCENT DISCREPANCY =          -0.00






         TIME SUMMARY AT END OF TIME STEP   30 IN STRESS PERIOD   50
                    SECONDS     MINUTES      HOURS       DAYS        YEARS
                    -----------------------------------------------------------
   TIME STEP LENGTH 2.49961E+05  4166.0      69.434      2.8931     7.92080E-03
 STRESS PERIOD TIME 2.59200E+06  43200.      720.00      30.000     8.21355E-02
         TOTAL TIME 1.29600E+08 2.16000E+06  36000.      1500.0      4.1068    
1

 Run end date and time (yyyy/mm/dd hh:mm:ss): 2016/11/20 14:48:07
 Elapsed run time: 26.879 Seconds

